
#######################################################################
#
#                 Cambridge Crystallographic Data Centre
#                                CCDC 
#
#######################################################################
#
# If this CIF has been generated from an entry in the Cambridge 
# Structural Database, then it will include bibliographic, chemical, 
# crystal, experimental, refinement or atomic coordinate data resulting 
# from the CCDC's data processing and validation procedures.
#
#######################################################################

data_ABAVOP
_symmetry_cell_setting           monoclinic
_symmetry_space_group_name_H-M   'P 21/n'
_symmetry_Int_Tables_number      14
_space_group_name_Hall           '-P 2yn'
loop_
_symmetry_equiv_pos_site_id
_symmetry_equiv_pos_as_xyz
1 x,y,z
2 1/2-x,1/2+y,1/2-z
3 -x,-y,-z
4 1/2+x,1/2-y,1/2+z
_cell_length_a                   9.778(3)
_cell_length_b                   13.212(4)
_cell_length_c                   10.266(3)
_cell_angle_alpha                90
_cell_angle_beta                 104.183(5)
_cell_angle_gamma                90
_cell_volume                     1285.81
loop_
_atom_site_label
_atom_site_type_symbol
_atom_site_fract_x
_atom_site_fract_y
_atom_site_fract_z
Co1 Co 1.0000 0.5000 1.0000
Co2 Co 1.0000 1.0000 1.5000
N1 N 0.9317(3) 0.8645(2) 1.3813(3)
C1 C 0.8687(4) 0.8670(3) 1.2499(4)
H1 H 0.8541 0.9305 1.2075
C2 C 0.8242(4) 0.7826(3) 1.1734(4)
H2 H 0.7792 0.7891 1.0817
C3 C 0.8460(4) 0.6877(3) 1.2321(4)
C4 C 0.9136(4) 0.6825(3) 1.3666(4)
H3 H 0.9332 0.6196 1.4098
C5 C 0.9521(4) 0.7717(3) 1.4369(4)
H4 H 0.9951 0.7671 1.5292
C6 C 0.7926(4) 0.5928(3) 1.1533(3)
O1 O 0.6602(2) 0.58965(18) 1.1134(2)
O2 O 0.8775(3) 0.52627(19) 1.1382(3)
N2 N 0.9321(3) 0.6373(2) 0.8946(3)
C7 C 0.7945(4) 0.6556(3) 0.8422(4)
H5 H 0.7285 0.6078 0.8564
C8 C 0.7451(4) 0.7418(3) 0.7680(4)
H6 H 0.6479 0.7519 0.7330
C9 C 0.8416(4) 0.8122(3) 0.7466(4)
C10 C 0.9838(4) 0.7939(3) 0.8037(4)
H7 H 1.0524 0.8412 0.7936
C11 C 1.0233(4) 0.7064(3) 0.8748(4)
H8 H 1.1200 0.6949 0.9114
C12 C 0.7907(4) 0.9051(2) 0.6614(3)
O3 O 0.6613(3) 0.91749(18) 0.6253(2)
O4 O 0.8856(3) 0.96139(19) 0.6361(2)
N1B N 1.0683(3) 0.1355(2) 0.6187(3)
C1B C 1.1313(4) 0.1330(3) 0.7501(4)
H1B H 1.1459 0.0695 0.7925
C2B C 1.1758(4) 0.2174(3) 0.8266(4)
H2B H 1.2208 0.2109 0.9183
C3B C 1.1540(4) 0.3123(3) 0.7679(4)
C4B C 1.0864(4) 0.3175(3) 0.6334(4)
H3B H 1.0668 0.3804 0.5902
C5B C 1.0479(4) 0.2283(3) 0.5631(4)
H4B H 1.0049 0.2329 0.4708
C6B C 1.2074(4) 0.4072(3) 0.8467(3)
O1B O 1.3398(2) 0.41035(18) 0.8866(2)
O2B O 1.1225(3) 0.47373(19) 0.8618(3)
N2B N 1.0679(3) 0.3627(2) 1.1054(3)
C7B C 1.2055(4) 0.3444(3) 1.1578(4)
H5B H 1.2715 0.3922 1.1436
C8B C 1.2549(4) 0.2582(3) 1.2320(4)
H6B H 1.3521 0.2481 1.2670
C9B C 1.1584(4) 0.1878(3) 1.2534(4)
C10B C 1.0162(4) 0.2061(3) 1.1963(4)
H7B H 0.9476 0.1588 1.2064
C11B C 0.9767(4) 0.2936(3) 1.1252(4)
H8B H 0.8800 0.3051 1.0886
C12B C 1.2093(4) 0.0949(2) 1.3386(3)
O3B O 1.3387(3) 0.08251(18) 1.3747(2)
O4B O 1.1144(3) 0.03861(19) 1.3639(2)
O3C O 1.1613(3) 0.58251(18) 1.1253(2)
O3A O 0.8387(3) 0.41749(18) 0.8747(2)
N1B_2 N 1.0683(3) 1.1355(2) 1.6187(3)
O1C O 1.1602(2) 0.91035(18) 1.6134(2)
O1A O 0.8398(2) 1.08965(18) 1.3866(2)
O4_2 O 0.8856(3) 0.96139(19) 1.6361(2)
O4B_2 O 1.1144(3) 1.03861(19) 1.3639(2)
Co2C Co 0.5000 0.5000 1.0000
Co1C Co 0.5000 1.0000 0.5000
Co2_2 Co 1.0000 1.0000 0.5000
Co2_3 Co 1.0000 0.0000 0.5000
Co2C_2 Co 1.5000 0.5000 1.0000
Co1C_2 Co 1.5000 0.0000 1.5000
Co2_4 Co 1.0000 0.0000 1.5000
loop_
_geom_bond_atom_site_label_1
_geom_bond_atom_site_label_2
_geom_bond_site_symmetry_1
_geom_bond_site_symmetry_2
Co1 O2 1_555 1_555
Co2 N1 1_555 1_555
N1 C1 1_555 1_555
C1 H1 1_555 1_555
C2 C1 1_555 1_555
H2 C2 1_555 1_555
C3 C2 1_555 1_555
C4 C3 1_555 1_555
H3 C4 1_555 1_555
C5 N1 1_555 1_555
H4 C5 1_555 1_555
C6 C3 1_555 1_555
O1 C6 1_555 1_555
O2 C6 1_555 1_555
N2 Co1 1_555 1_555
C7 N2 1_555 1_555
H5 C7 1_555 1_555
C8 C7 1_555 1_555
H6 C8 1_555 1_555
C9 C8 1_555 1_555
C10 C9 1_555 1_555
H7 C10 1_555 1_555
C11 N2 1_555 1_555
H8 C11 1_555 1_555
C12 C9 1_555 1_555
O3 C12 1_555 1_555
O4 C12 1_555 1_555
N1B C1B 1_555 1_555
C1B H1B 1_555 1_555
C2B C1B 1_555 1_555
H2B C2B 1_555 1_555
C3B C2B 1_555 1_555
C4B C3B 1_555 1_555
H3B C4B 1_555 1_555
C5B N1B 1_555 1_555
H4B C5B 1_555 1_555
C6B C3B 1_555 1_555
O1B C6B 1_555 1_555
O2B Co1 1_555 1_555
N2B Co1 1_555 1_555
C7B N2B 1_555 1_555
H5B C7B 1_555 1_555
C8B C7B 1_555 1_555
H6B C8B 1_555 1_555
C9B C8B 1_555 1_555
C10B C9B 1_555 1_555
H7B C10B 1_555 1_555
C11B N2B 1_555 1_555
H8B C11B 1_555 1_555
C12B C9B 1_555 1_555
O3B C12B 1_555 1_555
O4B C12B 1_555 1_555
O3C Co1 1_555 1_555
O3A Co1 1_555 1_555
N1B_2 Co2 1_555 1_555
O1C Co2 1_555 1_555
O1A Co2 1_555 1_555
O4_2 Co2 1_555 1_555
O4B_2 Co2 1_555 1_555
Co2C O1 1_555 1_555
Co1C O3 1_555 1_555
Co2_2 O4 1_555 1_555
Co2_3 N1B 1_555 1_555
Co2C_2 O1B 1_555 1_555
Co1C_2 O3B 1_555 1_555
Co2_4 O4B 1_555 1_555
C4 C5 1_555 1_555
C10 C11 1_555 1_555
C4B C5B 1_555 1_555
C6B O2B 1_555 1_555
C10B C11B 1_555 1_555

#END
