
#######################################################################
#
#                 Cambridge Crystallographic Data Centre
#                                CCDC 
#
#######################################################################
#
# If this CIF has been generated from an entry in the Cambridge 
# Structural Database, then it will include bibliographic, chemical, 
# crystal, experimental, refinement or atomic coordinate data resulting 
# from the CCDC's data processing and validation procedures.
#
#######################################################################

data_ACOLUB
_symmetry_cell_setting           monoclinic
_symmetry_space_group_name_H-M   'C 2/c'
_symmetry_Int_Tables_number      15
_space_group_name_Hall           '-C 2yc'
loop_
_symmetry_equiv_pos_site_id
_symmetry_equiv_pos_as_xyz
1 x,y,z
2 -x,y,1/2-z
3 1/2+x,1/2+y,z
4 1/2-x,1/2+y,1/2-z
5 -x,-y,-z
6 x,-y,1/2+z
7 1/2-x,1/2-y,-z
8 1/2+x,1/2-y,1/2+z
_cell_length_a                   29.766(6)
_cell_length_b                   20.293(5)
_cell_length_c                   16.483(4)
_cell_angle_alpha                90
_cell_angle_beta                 111.107(4)
_cell_angle_gamma                90
_cell_volume                     9288.43
loop_
_atom_site_label
_atom_site_type_symbol
_atom_site_fract_x
_atom_site_fract_y
_atom_site_fract_z
Cd1 Cd 0.7500 0.2500 0.5000
Cd2 Cd 0.77216(3) 0.41563(3) 0.54923(4)
N1 N 0.7665(3) 0.5188(3) 0.5865(5)
N2 N 0.7584(3) 0.6253(3) 0.5736(5)
O1 O 0.5000 0.3243(4) 0.7500
O2 O 0.6223(2) 0.3297(3) 0.8745(4)
O3 O 0.5952(2) 0.3086(3) 1.0485(4)
O4 O 0.4815(2) 0.2926(4) 0.9384(5)
O5 O 0.7482(2) 0.3788(3) 0.6496(4)
O6 O 0.7281(2) 0.2739(3) 0.6119(4)
O7 O 0.7233(3) 0.4494(4) 1.3965(4)
O8 O 0.7194(2) 0.3497(3) 1.4436(4)
O9 O 0.3189(2) 0.1880(3) 1.0613(4)
O10 O 0.3397(3) 0.0940(4) 1.0177(6)
C1 C 0.5493(3) 0.3146(4) 0.8985(5)
C2 C 0.5216(3) 0.3621(5) 0.8263(5)
H1 H 0.4971 0.3850 0.8415
H2 H 0.5433 0.3946 0.8173
C3 C 0.5887(3) 0.2797(5) 0.8758(6)
H3 H 0.6044 0.2465 0.9190
H4 H 0.5753 0.2586 0.8194
C4 C 0.5719(3) 0.3519(5) 0.9812(5)
H5 H 0.5949 0.3834 0.9746
H6 H 0.5474 0.3761 0.9947
C5 C 0.5154(3) 0.2597(5) 0.9092(6)
H7 H 0.4990 0.2377 0.8543
H8 H 0.5336 0.2273 0.9516
C6 C 0.6486(3) 0.3230(4) 0.8217(5)
C7 C 0.6499(3) 0.2674(5) 0.7760(6)
H9 H 0.6327 0.2301 0.7802
C8 C 0.6774(3) 0.2671(4) 0.7231(5)
H10 H 0.6787 0.2295 0.6918
C9 C 0.7026(3) 0.3231(4) 0.7174(5)
C10 C 0.7019(3) 0.3763(5) 0.7658(6)
H11 H 0.7195 0.4136 0.7631
C11 C 0.6758(3) 0.3760(5) 0.8186(6)
H12 H 0.6766 0.4126 0.8530
C12 C 0.7282(3) 0.3249(5) 0.6545(5)
C13 C 0.6212(3) 0.3323(5) 1.1284(6)
C14 C 0.6292(4) 0.3970(6) 1.1493(7)
H13 H 0.6156 0.4285 1.1064
C15 C 0.6568(4) 0.4176(5) 1.2323(6)
H14 H 0.6611 0.4622 1.2455
C16 C 0.6778(3) 0.3711(5) 1.2944(6)
C17 C 0.6686(4) 0.3065(5) 1.2729(6)
H15 H 0.6810 0.2749 1.3161
C18 C 0.6421(4) 0.2859(5) 1.1913(6)
H16 H 0.6382 0.2412 1.1783
C19 C 0.7090(4) 0.3916(5) 1.3826(6)
C20 C 0.4509(3) 0.2557(5) 0.9609(7)
C21 C 0.4233(4) 0.2869(5) 0.9964(8)
H17 H 0.4271 0.3321 1.0054
C22 C 0.3894(4) 0.2550(5) 1.0204(7)
H18 H 0.3708 0.2786 1.0452
C23 C 0.3828(3) 0.1889(5) 1.0082(6)
C24 C 0.4107(4) 0.1562(5) 0.9731(8)
H19 H 0.4077 0.1108 0.9658
C25 C 0.4446(4) 0.1907(6) 0.9472(7)
H20 H 0.4627 0.1681 0.9205
C26 C 0.3447(3) 0.1541(5) 1.0303(6)
C27 C 0.7646(3) 0.5681(4) 0.5363(7)
H21 H 0.7671 0.5650 0.4819
C28 C 0.7556(4) 0.6083(6) 0.6520(7)
H22 H 0.7510 0.6370 0.6922
C29 C 0.7608(5) 0.5427(5) 0.6602(8)
H23 H 0.7606 0.5178 0.7075
C30 C 0.7549(3) 0.6899(4) 0.5372(6)
C31 C 0.7805(3) 0.7049(4) 0.4877(7)
H24 H 0.8013 0.6737 0.4792
C32 C 0.7235(4) 0.7340(4) 0.5507(6)
H25 H 0.7055 0.7231 0.5846
Cd1_2 Cd 0.7500 0.2500 1.5000
Cd1A Cd 0.2500 0.2500 1.0000
Cd1A_2 Cd 0.2500 0.2500 0.0000
Cd2A Cd 0.22784(3) 0.41563(3) 0.95077(4)
Cd2_2 Cd 0.77216(3) 0.41563(3) 1.54923(4)
Cd2G Cd 0.27216(3) 0.08437(3) 1.04923(4)
Cd2F Cd 0.72784(3) 1.08437(3) 0.45077(4)
Cd2A_2 Cd 0.22784(3) 0.41563(3) -0.04923(4)
Cd2F_2 Cd 0.72784(3) 0.08437(3) 0.45077(4)
N1F N 0.7335(3) 0.9812(3) 0.4135(5)
N1A N 0.2335(3) 0.5188(3) 0.9135(5)
N2F N 0.7416(3) 0.8747(3) 0.4264(5)
O2A O 0.3777(2) 0.3297(3) 0.6255(4)
O3A O 0.4048(2) 0.3086(3) 0.4515(4)
O4A O 0.5185(2) 0.2926(4) 0.5616(5)
O5A O 0.2518(2) 0.3788(3) 0.8504(4)
O6A O 0.2719(2) 0.2739(3) 0.8881(4)
O6F O 0.7719(2) 0.2261(3) 0.3881(4)
O7A O 0.2767(3) 0.4494(4) 0.1035(4)
O7_2 O 0.7233(3) 0.4494(4) 0.3965(4)
O7A_2 O 0.2767(3) 0.4494(4) 1.1035(4)
O8A O 0.2806(2) 0.3497(3) 0.0564(4)
O8_2 O 0.7194(2) 0.3497(3) 0.4436(4)
O8F O 0.7806(2) 0.1503(3) 0.5564(4)
O8A_2 O 0.2806(2) 0.3497(3) 1.0564(4)
O9A O 0.6811(2) 0.1880(3) 0.4387(4)
O9G O 0.8189(2) 0.3120(3) 0.5613(4)
O9F O 0.1811(2) 0.3120(3) 0.9387(4)
O10A O 0.6603(3) 0.0940(4) 0.4823(6)
O10G O 0.8397(3) 0.4060(4) 0.5177(6)
O10F O 0.1603(3) 0.4060(4) 0.9823(6)
C1A C 0.4507(3) 0.3146(4) 0.6015(5)
C2A C 0.4784(3) 0.3621(5) 0.6737(5)
H1A H 0.5029 0.3850 0.6585
H2A H 0.4567 0.3946 0.6827
C3A C 0.4113(3) 0.2797(5) 0.6242(6)
H3A H 0.3956 0.2465 0.5810
H4A H 0.4247 0.2586 0.6806
C4A C 0.4281(3) 0.3519(5) 0.5188(5)
H5A H 0.4051 0.3834 0.5254
H6A H 0.4526 0.3761 0.5053
C5A C 0.4846(3) 0.2597(5) 0.5908(6)
H7A H 0.5010 0.2377 0.6457
H8A H 0.4664 0.2273 0.5484
C6A C 0.3514(3) 0.3230(4) 0.6783(5)
C7A C 0.3501(3) 0.2674(5) 0.7240(6)
H9A H 0.3673 0.2301 0.7198
C8A C 0.3226(3) 0.2671(4) 0.7769(5)
H10A H 0.3213 0.2295 0.8082
C9A C 0.2974(3) 0.3231(4) 0.7826(5)
C10A C 0.2981(3) 0.3763(5) 0.7342(6)
H11A H 0.2805 0.4136 0.7369
C11A C 0.3242(3) 0.3760(5) 0.6814(6)
H12A H 0.3234 0.4126 0.6470
C12A C 0.2718(3) 0.3249(5) 0.8455(5)
C13A C 0.3788(3) 0.3323(5) 0.3716(6)
C14A C 0.3708(4) 0.3970(6) 0.3507(7)
H13A H 0.3844 0.4285 0.3936
C15A C 0.3432(4) 0.4176(5) 0.2677(6)
H14A H 0.3389 0.4622 0.2545
C16A C 0.3222(3) 0.3711(5) 0.2056(6)
C17A C 0.3314(4) 0.3065(5) 0.2271(6)
H15A H 0.3190 0.2749 0.1839
C18A C 0.3579(4) 0.2859(5) 0.3087(6)
H16A H 0.3618 0.2412 0.3217
C19A C 0.2910(4) 0.3916(5) 0.1174(6)
C20A C 0.5491(3) 0.2557(5) 0.5391(7)
C21A C 0.5767(4) 0.2869(5) 0.5036(8)
H17A H 0.5729 0.3321 0.4946
C22A C 0.6106(4) 0.2550(5) 0.4796(7)
H18A H 0.6292 0.2786 0.4548
C23A C 0.6172(3) 0.1889(5) 0.4918(6)
C24A C 0.5893(4) 0.1562(5) 0.5269(8)
H19A H 0.5923 0.1108 0.5342
C25A C 0.5554(4) 0.1907(6) 0.5528(7)
H20A H 0.5373 0.1681 0.5795
C26A C 0.6553(3) 0.1541(5) 0.4697(6)
C27F C 0.7354(3) 0.9319(4) 0.4637(7)
H21F H 0.7329 0.9350 0.5181
C28F C 0.7444(4) 0.8917(6) 0.3480(7)
H22F H 0.7490 0.8630 0.3078
C29F C 0.7392(5) 0.9573(5) 0.3398(8)
H23F H 0.7394 0.9822 0.2925
C30F C 0.7451(3) 0.8101(4) 0.4628(6)
C31F C 0.7195(3) 0.7951(4) 0.5123(7)
H24F H 0.6987 0.8263 0.5208
C32F C 0.7765(4) 0.7660(4) 0.4493(6)
H25F H 0.7945 0.7769 0.4154
loop_
_geom_bond_atom_site_label_1
_geom_bond_atom_site_label_2
_geom_bond_site_symmetry_1
_geom_bond_site_symmetry_2
Cd1 O6 1_555 1_555
Cd2 N1 1_555 1_555
N1 C27 1_555 1_555
N2 C27 1_555 1_555
O1 C2 1_555 1_555
O2 C3 1_555 1_555
O3 C4 1_555 1_555
O4 C5 1_555 1_555
O5 Cd2 1_555 1_555
O6 C12 1_555 1_555
O7 C19 1_555 1_555
O8 C19 1_555 1_555
O9 C26 1_555 1_555
O10 C26 1_555 1_555
C1 C2 1_555 1_555
C2 H1 1_555 1_555
H2 C2 1_555 1_555
C3 C1 1_555 1_555
H3 C3 1_555 1_555
H4 C3 1_555 1_555
C4 C1 1_555 1_555
H5 C4 1_555 1_555
H6 C4 1_555 1_555
C5 C1 1_555 1_555
H7 C5 1_555 1_555
H8 C5 1_555 1_555
C6 O2 1_555 1_555
C7 C6 1_555 1_555
H9 C7 1_555 1_555
C8 C7 1_555 1_555
H10 C8 1_555 1_555
C9 C8 1_555 1_555
C10 C9 1_555 1_555
H11 C10 1_555 1_555
C11 C6 1_555 1_555
H12 C11 1_555 1_555
C12 O5 1_555 1_555
C13 O3 1_555 1_555
C14 C13 1_555 1_555
H13 C14 1_555 1_555
C15 C14 1_555 1_555
H14 C15 1_555 1_555
C16 C15 1_555 1_555
C17 C16 1_555 1_555
H15 C17 1_555 1_555
C18 C13 1_555 1_555
H16 C18 1_555 1_555
C19 C16 1_555 1_555
C20 O4 1_555 1_555
C21 C20 1_555 1_555
H17 C21 1_555 1_555
C22 C21 1_555 1_555
H18 C22 1_555 1_555
C23 C22 1_555 1_555
C24 C23 1_555 1_555
H19 C24 1_555 1_555
C25 C20 1_555 1_555
H20 C25 1_555 1_555
C26 C23 1_555 1_555
C27 H21 1_555 1_555
C28 N2 1_555 1_555
H22 C28 1_555 1_555
C29 N1 1_555 1_555
H23 C29 1_555 1_555
C30 N2 1_555 1_555
C31 C30 1_555 1_555
H24 C31 1_555 1_555
C32 C30 1_555 1_555
H25 C32 1_555 1_555
Cd1_2 O8 1_555 1_555
Cd1A O9 1_555 1_555
Cd1A_2 O8A 1_555 1_555
Cd2A N1A 1_555 1_555
Cd2_2 O7 1_555 1_555
Cd2G O9 1_555 1_555
Cd2F N1F 1_555 1_555
Cd2A_2 O7A 1_555 1_555
Cd2F_2 O8F 1_555 1_555
N1F C27F 1_555 1_555
N2F C27F 1_555 1_555
O2A C3A 1_555 1_555
O3A C4A 1_555 1_555
O4A C5A 1_555 1_555
O5A Cd2A 1_555 1_555
O6A Cd1A 1_555 1_555
O6F Cd1 1_555 1_555
O7A C19A 1_555 1_555
O7_2 Cd2 1_555 1_555
O7A_2 Cd2A 1_555 1_555
O8A Cd2A_2 1_555 1_555
O8_2 Cd1 1_555 1_555
O8F Cd1 1_555 1_555
O8A_2 Cd1A 1_555 1_555
O9A Cd1 1_555 1_555
O9G Cd1 1_555 1_555
O9F Cd1A 1_555 1_555
O10A Cd2F_2 1_555 1_555
O10G Cd2 1_555 1_555
O10F Cd2A 1_555 1_555
C1A C2A 1_555 1_555
C2A O1 1_555 1_555
H1A C2A 1_555 1_555
H2A C2A 1_555 1_555
C3A C1A 1_555 1_555
H3A C3A 1_555 1_555
H4A C3A 1_555 1_555
C4A C1A 1_555 1_555
H5A C4A 1_555 1_555
H6A C4A 1_555 1_555
C5A C1A 1_555 1_555
H7A C5A 1_555 1_555
H8A C5A 1_555 1_555
C6A O2A 1_555 1_555
C7A C6A 1_555 1_555
H9A C7A 1_555 1_555
C8A C7A 1_555 1_555
H10A C8A 1_555 1_555
C9A C8A 1_555 1_555
C10A C9A 1_555 1_555
H11A C10A 1_555 1_555
C11A C6A 1_555 1_555
H12A C11A 1_555 1_555
C12A O5A 1_555 1_555
C13A O3A 1_555 1_555
C14A C13A 1_555 1_555
H13A C14A 1_555 1_555
C15A C14A 1_555 1_555
H14A C15A 1_555 1_555
C16A C15A 1_555 1_555
C17A C16A 1_555 1_555
H15A C17A 1_555 1_555
C18A C13A 1_555 1_555
H16A C18A 1_555 1_555
C19A O8A 1_555 1_555
C20A O4A 1_555 1_555
C21A C20A 1_555 1_555
H17A C21A 1_555 1_555
C22A C21A 1_555 1_555
H18A C22A 1_555 1_555
C23A C22A 1_555 1_555
C24A C23A 1_555 1_555
H19A C24A 1_555 1_555
C25A C20A 1_555 1_555
H20A C25A 1_555 1_555
C26A O9A 1_555 1_555
C27F H21F 1_555 1_555
C28F N2F 1_555 1_555
H22F C28F 1_555 1_555
C29F N1F 1_555 1_555
H23F C29F 1_555 1_555
C30F N2F 1_555 1_555
C31F C32 1_555 1_555
H24F C31F 1_555 1_555
C32F C31 1_555 1_555
H25F C32F 1_555 1_555
Cd2 O8_2 1_555 1_555
Cd2 O9G 1_555 1_555
O8 Cd2_2 1_555 1_555
O10 Cd2G 1_555 1_555
C9 C12 1_555 1_555
C10 C11 1_555 1_555
C17 C18 1_555 1_555
C24 C25 1_555 1_555
C28 C29 1_555 1_555
Cd2A O8A_2 1_555 1_555
Cd2A O9F 1_555 1_555
Cd2F_2 O9A 1_555 1_555
O6A C12A 1_555 1_555
O10A C26A 1_555 1_555
C9A C12A 1_555 1_555
C10A C11A 1_555 1_555
C16A C19A 1_555 1_555
C17A C18A 1_555 1_555
C23A C26A 1_555 1_555
C24A C25A 1_555 1_555
C28F C29F 1_555 1_555
C30F C31F 1_555 1_555
C30F C32F 1_555 1_555

#END
