
#######################################################################
#
#                 Cambridge Crystallographic Data Centre
#                                CCDC 
#
#######################################################################
#
# If this CIF has been generated from an entry in the Cambridge 
# Structural Database, then it will include bibliographic, chemical, 
# crystal, experimental, refinement or atomic coordinate data resulting 
# from the CCDC's data processing and validation procedures.
#
#######################################################################

data_ADAQAA
_symmetry_cell_setting           orthorhombic
_symmetry_space_group_name_H-M   'C c c m'
_symmetry_Int_Tables_number      66
_space_group_name_Hall           '-C 2 2c'
loop_
_symmetry_equiv_pos_site_id
_symmetry_equiv_pos_as_xyz
1 x,y,z
2 -x,-y,z
3 -x,y,1/2-z
4 x,-y,1/2-z
5 1/2+x,1/2+y,z
6 1/2-x,1/2-y,z
7 1/2-x,1/2+y,1/2-z
8 1/2+x,1/2-y,1/2-z
9 -x,-y,-z
10 x,y,-z
11 x,-y,1/2+z
12 -x,y,1/2+z
13 1/2-x,1/2-y,-z
14 1/2+x,1/2+y,-z
15 1/2+x,1/2-y,1/2+z
16 1/2-x,1/2+y,1/2+z
_cell_length_a                   17.842(4)
_cell_length_b                   37.867(8)
_cell_length_c                   33.693(7)
_cell_angle_alpha                90
_cell_angle_beta                 90
_cell_angle_gamma                90
_cell_volume                     22763.8
loop_
_atom_site_label
_atom_site_type_symbol
_atom_site_fract_x
_atom_site_fract_y
_atom_site_fract_z
_atom_site_U_iso_or_equiv
_atom_site_thermal_displace_type
Zr1 Zr 0.52443(3) 0.56365(2) 0.5000 0.0241 Uani
Zr2 Zr 0.59790(2) 0.49176(2) 0.44752(2) 0.0291 Uani
O1 O 0.6098(3) 0.52288(8) 0.5000 0.0574 Uani
O2 O 0.5871(3) 0.46074(10) 0.5000 0.0820 Uani
O3 O 0.48775(19) 0.46879(8) 0.44705(11) 0.0833 Uani
O4 O 0.5895(2) 0.49248(8) 0.38275(7) 0.0629 Uani
H1 H 0.594(3) 0.4788(9) 0.3623(8) 0.0750 Uiso
H2 H 0.577(3) 0.5112(7) 0.3694(11) 0.0750 Uiso
O5 O 0.71807(18) 0.48121(7) 0.44891(9) 0.0516 Uani
H3 H 0.7642(10) 0.4869(11) 0.4429(12) 0.0620 Uiso
H4 H 0.729(2) 0.4662(9) 0.4670(9) 0.0620 Uiso
O6 O 0.46214(15) 0.59888(5) 0.53904(6) 0.0338 Uani
O7 O 0.38466(17) 0.56426(6) 0.57469(8) 0.0504 Uani
O8 O 0.15485(19) 0.95877(6) 0.92639(8) 0.0570 Uani
O9 O 0.10799(15) 0.91279(5) 0.96044(6) 0.0333 Uani
C1 C 0.4175(2) 0.59281(8) 0.56772(10) 0.0387 Uani
C2 C 0.4056(2) 0.62274(9) 0.59573(11) 0.0425 Uani
C3 C 0.3613(3) 0.61899(10) 0.62880(12) 0.0548 Uani
H5 H 0.3356 0.5974 0.6332 0.0660 Uiso
C4 C 0.3537(3) 0.64606(10) 0.65550(12) 0.0546 Uani
H6 H 0.3225 0.6430 0.6781 0.0660 Uiso
C5 C 0.3914(2) 0.67838(9) 0.64994(12) 0.0466 Uani
C6 C 0.4352(3) 0.68217(10) 0.61587(12) 0.0572 Uani
H7 H 0.4604 0.7038 0.6110 0.0690 Uiso
C7 C 0.4422(3) 0.65460(9) 0.58905(12) 0.0539 Uani
H8 H 0.4722 0.6575 0.5660 0.0650 Uiso
C8 C 0.3853(2) 0.70784(9) 0.67888(11) 0.0401 Uani
C9 C 0.3205(2) 0.71187(8) 0.70185(9) 0.0331 Uani
H9 H 0.2799 0.6958 0.6992 0.0400 Uiso
C10 C 0.3162(2) 0.73947(8) 0.72837(9) 0.0272 Uani
C11 C 0.2500 0.7500 0.75489(12) 0.0258 Uani
C12 C 0.2828(2) 0.78113(7) 0.77740(8) 0.0259 Uani
C13 C 0.2485(2) 0.80178(8) 0.80596(9) 0.0306 Uani
H10 H 0.1999 0.7961 0.8155 0.0370 Uiso
C14 C 0.2874(2) 0.83163(8) 0.82062(10) 0.0360 Uani
C15 C 0.3582(2) 0.83924(9) 0.80588(10) 0.0410 Uani
H11 H 0.3840 0.8593 0.8159 0.0490 Uiso
C16 C 0.3926(2) 0.81874(9) 0.77712(11) 0.0375 Uani
H12 H 0.4409 0.8246 0.7672 0.0450 Uiso
C17 C 0.3540(2) 0.78927(8) 0.76321(9) 0.0294 Uani
C18 C 0.3756(2) 0.76317(8) 0.73281(10) 0.0315 Uani
C19 C 0.4390(2) 0.75945(10) 0.70974(11) 0.0448 Uani
H13 H 0.4792 0.7758 0.7120 0.0540 Uiso
C20 C 0.4432(2) 0.73169(10) 0.68332(12) 0.0483 Uani
H14 H 0.4872 0.7289 0.6677 0.0580 Uiso
C21 C 0.2513(2) 0.85539(8) 0.85003(10) 0.0405 Uani
C22 C 0.2023(3) 0.84267(9) 0.87917(10) 0.0462 Uani
H15 H 0.1910 0.8182 0.8802 0.0550 Uiso
C23 C 0.1704(3) 0.86535(9) 0.90633(11) 0.0463 Uani
H16 H 0.1378 0.8563 0.9262 0.0560 Uiso
C24 C 0.1855(3) 0.90136(8) 0.90481(11) 0.0447 Uani
C25 C 0.2328(3) 0.91428(9) 0.87644(12) 0.0615 Uani
H17 H 0.2430 0.9389 0.8754 0.0740 Uiso
C26 C 0.2663(3) 0.89184(9) 0.84905(12) 0.0576 Uani
H18 H 0.2993 0.9012 0.8296 0.0690 Uiso
C27 C 0.1469(2) 0.92642(9) 0.93282(11) 0.0414 Uani
O6E O 0.03786(15) 0.90112(5) 0.53904(6) 0.0338 Uani
O7E O 0.11534(17) 0.93574(6) 0.57469(8) 0.0504 Uani
O8E O 0.34515(19) 0.54123(6) 0.92639(8) 0.0570 Uani
O9E O 0.39201(15) 0.58721(5) 0.96044(6) 0.0333 Uani
C1E C 0.0825(2) 0.90719(8) 0.56772(10) 0.0387 Uani
C2E C 0.0944(2) 0.87726(9) 0.59573(11) 0.0425 Uani
C3E C 0.1387(3) 0.88101(10) 0.62880(12) 0.0548 Uani
H5E H 0.1644 0.9026 0.6332 0.0660 Uiso
C4E C 0.1463(3) 0.85394(10) 0.65550(12) 0.0546 Uani
H6E H 0.1775 0.8570 0.6781 0.0660 Uiso
C5E C 0.1086(2) 0.82162(9) 0.64994(12) 0.0466 Uani
C6E C 0.0648(3) 0.81783(10) 0.61587(12) 0.0572 Uani
H7E H 0.0396 0.7962 0.6110 0.0690 Uiso
C7E C 0.0578(3) 0.84540(9) 0.58905(12) 0.0539 Uani
H8E H 0.0278 0.8425 0.5660 0.0650 Uiso
C8E C 0.1147(2) 0.79216(9) 0.67888(11) 0.0401 Uani
C9E C 0.1795(2) 0.78813(8) 0.70185(9) 0.0331 Uani
H9E H 0.2201 0.8042 0.6992 0.0400 Uiso
C10E C 0.1838(2) 0.76053(8) 0.72837(9) 0.0272 Uani
C12E C 0.2172(2) 0.71887(7) 0.77740(8) 0.0259 Uani
C13E C 0.2515(2) 0.69822(8) 0.80596(9) 0.0306 Uani
H10E H 0.3001 0.7039 0.8155 0.0370 Uiso
C14E C 0.2126(2) 0.66837(8) 0.82062(10) 0.0360 Uani
C15E C 0.1418(2) 0.66076(9) 0.80588(10) 0.0410 Uani
H11E H 0.1160 0.6407 0.8159 0.0490 Uiso
C16E C 0.1074(2) 0.68126(9) 0.77712(11) 0.0375 Uani
H12E H 0.0591 0.6754 0.7672 0.0450 Uiso
C17E C 0.1460(2) 0.71073(8) 0.76321(9) 0.0294 Uani
C18E C 0.1244(2) 0.73683(8) 0.73281(10) 0.0315 Uani
C19E C 0.0610(2) 0.74055(10) 0.70974(11) 0.0448 Uani
H13E H 0.0208 0.7242 0.7120 0.0540 Uiso
C20E C 0.0568(2) 0.76831(10) 0.68332(12) 0.0483 Uani
H14E H 0.0128 0.7711 0.6677 0.0580 Uiso
C21E C 0.2487(2) 0.64461(8) 0.85003(10) 0.0405 Uani
C22E C 0.2977(3) 0.65733(9) 0.87917(10) 0.0462 Uani
H15E H 0.3090 0.6818 0.8802 0.0550 Uiso
C23E C 0.3296(3) 0.63465(9) 0.90633(11) 0.0463 Uani
H16E H 0.3622 0.6437 0.9262 0.0560 Uiso
C24E C 0.3145(3) 0.59864(8) 0.90481(11) 0.0447 Uani
C25E C 0.2672(3) 0.58572(9) 0.87644(12) 0.0615 Uani
H17E H 0.2570 0.5611 0.8754 0.0740 Uiso
C26E C 0.2337(3) 0.60816(9) 0.84905(12) 0.0576 Uani
H18E H 0.2007 0.5988 0.8296 0.0690 Uiso
C27E C 0.3531(2) 0.57358(9) 0.93282(11) 0.0414 Uani
Zr2A Zr 0.40210(2) 0.50824(2) 0.44752(2) 0.0291 Uani
O3A O 0.51225(19) 0.53121(8) 0.44705(11) 0.0833 Uani
O4A O 0.4105(2) 0.50752(8) 0.38275(7) 0.0629 Uani
H1A H 0.406(3) 0.5212(9) 0.3623(8) 0.0750 Uiso
H2A H 0.423(3) 0.4888(7) 0.3694(11) 0.0750 Uiso
O5A O 0.28193(18) 0.51879(7) 0.44891(9) 0.0516 Uani
H3A H 0.2358(10) 0.5131(11) 0.4429(12) 0.0620 Uiso
H4A H 0.271(2) 0.5338(9) 0.4670(9) 0.0620 Uiso
Zr1A Zr 0.47557(3) 0.43635(2) 0.5000 0.0241 Uani
Zr1B Zr 0.47557(3) 0.56365(2) 1.0000 0.0241 Uani
Zr1E Zr -0.02443(3) 0.93635(2) 0.5000 0.0241 Uani
Zr1G Zr 0.02443(3) 0.93635(2) 1.0000 0.0241 Uani
Zr2H Zr 0.40210(2) 0.50824(2) 0.55248(2) 0.0291 Uani
Zr2I Zr 0.59790(2) 0.49176(2) 0.55248(2) 0.0291 Uani
Zr2K Zr 0.40210(2) 0.49176(2) 0.94752(2) 0.0291 Uani
Zr2M Zr 0.09790(2) 0.99176(2) 0.55248(2) 0.0291 Uani
Zr2N Zr 0.09790(2) 1.00824(2) 0.94752(2) 0.0291 Uani
O1A O 0.3902(3) 0.47712(8) 0.5000 0.0574 Uani
O2A O 0.4129(3) 0.53926(10) 0.5000 0.0820 Uani
O3H O 0.51225(19) 0.53121(8) 0.55295(11) 0.0833 Uani
O6I O 0.46214(15) 0.59888(5) 0.46096(6) 0.0338 Uani
O7H O 0.61534(17) 0.43574(6) 0.42531(8) 0.0504 Uani
O7I O 0.38466(17) 0.56426(6) 0.42531(8) 0.0504 Uani
O8N O 0.65485(19) 0.54123(6) 0.42639(8) 0.0570 Uani
O8O O 0.34515(19) 0.45877(6) 0.42639(8) 0.0570 Uani
O9G O 0.60799(15) 0.58721(5) 0.53956(6) 0.0333 Uani
O9N O 0.60799(15) 0.58721(5) 0.46044(6) 0.0333 Uani
loop_
_atom_site_aniso_label
_atom_site_aniso_U_11
_atom_site_aniso_U_22
_atom_site_aniso_U_33
_atom_site_aniso_U_23
_atom_site_aniso_U_13
_atom_site_aniso_U_12
Zr1 0.0479(3) 0.00936(17) 0.0149(2) 0.000 0.000 -0.0015(2)
Zr2 0.0535(2) 0.01243(15) 0.02130(17) -0.00116(11) 0.00783(15) -0.00245(15)
O1 0.135(4) 0.0133(15) 0.0240(18) 0.000 0.000 0.012(2)
O2 0.179(6) 0.039(2) 0.028(2) 0.000 0.000 -0.064(3)
O3 0.056(2) 0.0559(19) 0.138(3) 0.071(2) 0.028(2) 0.0121(17)
O4 0.116(3) 0.0524(19) 0.0204(13) 0.0004(12) 0.0154(15) 0.003(2)
O5 0.0555(19) 0.0284(13) 0.071(2) 0.0041(12) 0.0127(16) -0.0011(13)
O6 0.0632(18) 0.0141(10) 0.0242(11) -0.0029(8) 0.0066(11) 0.0006(11)
O7 0.077(2) 0.0237(12) 0.0506(16) -0.0148(11) 0.0291(14) -0.0137(13)
O8 0.101(3) 0.0161(11) 0.0540(16) -0.0043(11) 0.0414(16) -0.0005(14)
O9 0.0615(18) 0.0163(10) 0.0221(11) -0.0003(8) 0.0087(11) 0.0032(11)
C1 0.066(3) 0.0175(15) 0.0326(18) -0.0072(13) 0.0113(18) -0.0026(16)
C2 0.066(3) 0.0215(16) 0.040(2) -0.0122(14) 0.0144(19) -0.0075(18)
C3 0.077(3) 0.0294(19) 0.058(3) -0.0142(17) 0.031(2) -0.016(2)
C4 0.076(3) 0.0317(19) 0.056(3) -0.0149(18) 0.031(2) -0.014(2)
C5 0.064(3) 0.0269(18) 0.049(2) -0.0134(16) 0.022(2) -0.0092(18)
C6 0.089(4) 0.0257(18) 0.057(3) -0.0194(17) 0.033(2) -0.016(2)
C7 0.088(3) 0.0257(18) 0.048(2) -0.0126(16) 0.031(2) -0.012(2)
C8 0.055(3) 0.0243(16) 0.041(2) -0.0119(14) 0.0130(18) -0.0059(17)
C9 0.048(2) 0.0197(15) 0.0315(17) -0.0070(13) 0.0051(16) -0.0024(15)
C10 0.040(2) 0.0168(14) 0.0249(15) -0.0021(11) -0.0023(14) 0.0034(14)
C11 0.034(3) 0.0154(19) 0.028(2) 0.000 0.000 0.0006(19)
C12 0.042(2) 0.0151(13) 0.0205(14) -0.0001(11) -0.0020(14) 0.0031(13)
C13 0.047(2) 0.0173(14) 0.0275(16) -0.0013(12) 0.0076(15) 0.0060(14)
C14 0.057(3) 0.0204(15) 0.0306(17) -0.0052(13) 0.0073(17) 0.0038(16)
C15 0.055(3) 0.0229(16) 0.045(2) -0.0142(15) 0.0055(19) 0.0000(17)
C16 0.041(2) 0.0266(17) 0.045(2) -0.0101(15) 0.0058(17) -0.0020(16)
C17 0.039(2) 0.0199(14) 0.0294(16) -0.0063(12) -0.0031(15) 0.0023(14)
C18 0.040(2) 0.0201(15) 0.0343(18) -0.0052(13) 0.0022(16) 0.0024(14)
C19 0.048(3) 0.0314(19) 0.055(2) -0.0171(17) 0.016(2) -0.0070(18)
C20 0.051(3) 0.0330(19) 0.061(3) -0.0197(18) 0.027(2) -0.0085(19)
C21 0.064(3) 0.0183(15) 0.0393(19) -0.0067(14) 0.0113(18) 0.0017(17)
C22 0.077(3) 0.0175(15) 0.044(2) -0.0063(14) 0.021(2) 0.0020(18)
C23 0.076(3) 0.0209(16) 0.042(2) -0.0045(15) 0.027(2) 0.0011(18)
C24 0.079(3) 0.0150(15) 0.040(2) -0.0044(13) 0.022(2) 0.0015(17)
C25 0.106(4) 0.0184(17) 0.060(3) -0.0082(16) 0.042(3) -0.003(2)
C26 0.097(4) 0.0188(16) 0.057(2) -0.0093(16) 0.041(2) -0.005(2)
C27 0.068(3) 0.0186(15) 0.0377(19) -0.0077(14) 0.0156(19) 0.0046(17)
O6E 0.0632 0.0141 0.0242 0.0029 -0.0066 0.0006
O7E 0.077 0.0237 0.0506 0.0148 -0.0291 -0.0137
O8E 0.101 0.0161 0.054 0.0043 -0.0414 -0.0005
O9E 0.0615 0.0163 0.0221 0.0003 -0.0087 0.0032
C1E 0.066 0.0175 0.0326 0.0072 -0.0113 -0.0026
C2E 0.066 0.0215 0.04 0.0122 -0.0144 -0.0075
C3E 0.077 0.0294 0.058 0.0142 -0.031 -0.016
C4E 0.076 0.0317 0.056 0.0149 -0.031 -0.014
C5E 0.064 0.0269 0.049 0.0134 -0.022 -0.0092
C6E 0.089 0.0257 0.057 0.0194 -0.033 -0.016
C7E 0.088 0.0257 0.048 0.0126 -0.031 -0.012
C8E 0.055 0.0243 0.041 0.0119 -0.013 -0.0059
C9E 0.048 0.0197 0.0315 0.007 -0.0051 -0.0024
C10E 0.04 0.0168 0.0249 0.0021 0.0023 0.0034
C12E 0.042 0.0151 0.0205 0.0001 0.002 0.0031
C13E 0.047 0.0173 0.0275 0.0013 -0.0076 0.006
C14E 0.057 0.0204 0.0306 0.0052 -0.0073 0.0038
C15E 0.055 0.0229 0.045 0.0142 -0.0055 0
C16E 0.041 0.0266 0.045 0.0101 -0.0058 -0.002
C17E 0.039 0.0199 0.0294 0.0063 0.0031 0.0023
C18E 0.04 0.0201 0.0343 0.0052 -0.0022 0.0024
C19E 0.048 0.0314 0.055 0.0171 -0.016 -0.007
C20E 0.051 0.033 0.061 0.0197 -0.027 -0.0085
C21E 0.064 0.0183 0.0393 0.0067 -0.0113 0.0017
C22E 0.077 0.0175 0.044 0.0063 -0.021 0.002
C23E 0.076 0.0209 0.042 0.0045 -0.027 0.0011
C24E 0.079 0.015 0.04 0.0044 -0.022 0.0015
C25E 0.106 0.0184 0.06 0.0082 -0.042 -0.003
C26E 0.097 0.0188 0.057 0.0093 -0.041 -0.005
C27E 0.068 0.0186 0.0377 0.0077 -0.0156 0.0046
Zr2A 0.0535 0.01243 0.0213 0.00116 -0.00783 -0.00245
O3A 0.056 0.0559 0.138 -0.071 -0.028 0.0121
O4A 0.116 0.0524 0.0204 -0.0004 -0.0154 0.003
O5A 0.0555 0.0284 0.071 -0.0041 -0.0127 -0.0011
Zr1A 0.0479 0.00936 0.0149 0 0 -0.0015
Zr1B 0.0479 0.00936 0.0149 0 0 0.0015
Zr1E 0.0479 0.00936 0.0149 0 0 -0.0015
Zr1G 0.0479 0.00936 0.0149 0 0 0.0015
Zr2H 0.0535 0.01243 0.0213 -0.00116 0.00783 -0.00245
Zr2I 0.0535 0.01243 0.0213 0.00116 -0.00783 -0.00245
Zr2K 0.0535 0.01243 0.0213 -0.00116 -0.00783 0.00245
Zr2M 0.0535 0.01243 0.0213 0.00116 -0.00783 -0.00245
Zr2N 0.0535 0.01243 0.0213 0.00116 0.00783 0.00245
O1A 0.135 0.0133 0.024 0 0 0.012
O2A 0.179 0.039 0.028 0 0 -0.064
O3H 0.056 0.0559 0.138 0.071 0.028 0.0121
O6I 0.0632 0.0141 0.0242 0.0029 -0.0066 0.0006
O7H 0.077 0.0237 0.0506 -0.0148 0.0291 -0.0137
O7I 0.077 0.0237 0.0506 0.0148 -0.0291 -0.0137
O8N 0.101 0.0161 0.054 0.0043 0.0414 0.0005
O8O 0.101 0.0161 0.054 -0.0043 -0.0414 0.0005
O9G 0.0615 0.0163 0.0221 -0.0003 -0.0087 -0.0032
O9N 0.0615 0.0163 0.0221 0.0003 0.0087 -0.0032
loop_
_geom_bond_atom_site_label_1
_geom_bond_atom_site_label_2
_geom_bond_site_symmetry_1
_geom_bond_site_symmetry_2
Zr1 O1 1_555 1_555
Zr2 O1 1_555 1_555
O1 Zr2I 1_555 1_555
O2 Zr2 1_555 1_555
O3 Zr2 1_555 1_555
O4 Zr2 1_555 1_555
H1 O4 1_555 1_555
H2 O4 1_555 1_555
O5 Zr2 1_555 1_555
H3 O5 1_555 1_555
H4 O5 1_555 1_555
O6 Zr1 1_555 1_555
O7 C1 1_555 1_555
O8 C27 1_555 1_555
O9 C27 1_555 1_555
C1 O6 1_555 1_555
C2 C1 1_555 1_555
C3 C2 1_555 1_555
H5 C3 1_555 1_555
C4 C3 1_555 1_555
H6 C4 1_555 1_555
C5 C4 1_555 1_555
C6 C5 1_555 1_555
H7 C6 1_555 1_555
C7 C2 1_555 1_555
H8 C7 1_555 1_555
C8 C5 1_555 1_555
C9 C8 1_555 1_555
H9 C9 1_555 1_555
C10 C9 1_555 1_555
C11 C10 1_555 1_555
C12 C11 1_555 1_555
C13 C12 1_555 1_555
H10 C13 1_555 1_555
C14 C13 1_555 1_555
C15 C14 1_555 1_555
H11 C15 1_555 1_555
C16 C15 1_555 1_555
H12 C16 1_555 1_555
C17 C12 1_555 1_555
C18 C10 1_555 1_555
C19 C18 1_555 1_555
H13 C19 1_555 1_555
C20 C8 1_555 1_555
H14 C20 1_555 1_555
C21 C14 1_555 1_555
C22 C21 1_555 1_555
H15 C22 1_555 1_555
C23 C22 1_555 1_555
H16 C23 1_555 1_555
C24 C23 1_555 1_555
C25 C24 1_555 1_555
H17 C25 1_555 1_555
C26 C21 1_555 1_555
H18 C26 1_555 1_555
C27 C24 1_555 1_555
O6E C1E 1_555 1_555
O7E C1E 1_555 1_555
O8E C27E 1_555 1_555
O9E C27E 1_555 1_555
C1E C2E 1_555 1_555
C2E C3E 1_555 1_555
C3E H5E 1_555 1_555
C4E C3E 1_555 1_555
H6E C4E 1_555 1_555
C5E C4E 1_555 1_555
C6E C5E 1_555 1_555
H7E C6E 1_555 1_555
C7E C2E 1_555 1_555
H8E C7E 1_555 1_555
C8E C5E 1_555 1_555
C9E C8E 1_555 1_555
H9E C9E 1_555 1_555
C10E C11 1_555 1_555
C12E C11 1_555 1_555
C13E C12E 1_555 1_555
H10E C13E 1_555 1_555
C14E C13E 1_555 1_555
C15E C14E 1_555 1_555
H11E C15E 1_555 1_555
C16E C15E 1_555 1_555
H12E C16E 1_555 1_555
C17E C12E 1_555 1_555
C18E C10E 1_555 1_555
C19E C18E 1_555 1_555
H13E C19E 1_555 1_555
C20E C8E 1_555 1_555
H14E C20E 1_555 1_555
C21E C14E 1_555 1_555
C22E C21E 1_555 1_555
H15E C22E 1_555 1_555
C23E C22E 1_555 1_555
H16E C23E 1_555 1_555
C24E C23E 1_555 1_555
C25E C24E 1_555 1_555
H17E C25E 1_555 1_555
C26E C21E 1_555 1_555
H18E C26E 1_555 1_555
C27E C24E 1_555 1_555
Zr2A O3 1_555 1_555
O3A Zr1 1_555 1_555
O4A Zr2A 1_555 1_555
H1A O4A 1_555 1_555
H2A O4A 1_555 1_555
O5A Zr2A 1_555 1_555
H3A O5A 1_555 1_555
H4A O5A 1_555 1_555
Zr1A O2 1_555 1_555
Zr1B O9E 1_555 1_555
Zr1E O6E 1_555 1_555
Zr1G O9 1_555 1_555
Zr2H O7 1_555 1_555
Zr2I O2 1_555 1_555
Zr2K O8E 1_555 1_555
Zr2M O7E 1_555 1_555
Zr2N O8 1_555 1_555
O1A Zr2A 1_555 1_555
O2A Zr1 1_555 1_555
O3H Zr1 1_555 1_555
O6I Zr1 1_555 1_555
O7H Zr2 1_555 1_555
O7I Zr2A 1_555 1_555
O8N Zr2 1_555 1_555
O8O Zr2A 1_555 1_555
O9G Zr1 1_555 1_555
O9N Zr1 1_555 1_555
Zr2 O3A 1_555 1_555
O3 Zr1A 1_555 1_555
C6 C7 1_555 1_555
C16 C17 1_555 1_555
C17 C18 1_555 1_555
C19 C20 1_555 1_555
C25 C26 1_555 1_555
C6E C7E 1_555 1_555
C9E C10E 1_555 1_555
C16E C17E 1_555 1_555
C17E C18E 1_555 1_555
C19E C20E 1_555 1_555
C25E C26E 1_555 1_555
Zr2A O3A 1_555 1_555
Zr2A O2A 1_555 1_555
Zr1A O1A 1_555 1_555
Zr2H O1A 1_555 1_555
Zr2H O2A 1_555 1_555
Zr2H O3H 1_555 1_555
Zr2I O3H 1_555 1_555

#END
