# DDEC6 charges by PACMAN v1.3.9 (https://github.com/mtap-research/PACMAN-charge/)
data_ABAVOP_pacman
_symmetry_space_group_name_H-M   'P 1'
_cell_length_a   9.77800000
_cell_length_b   13.21200000
_cell_length_c   12.32109628
_cell_angle_alpha   90.00000000
_cell_angle_beta   126.11774187
_cell_angle_gamma   90.00000000
_symmetry_Int_Tables_number   1
_chemical_formula_structural   CoH8C12(NO2)2
_chemical_formula_sum   'Co4 H32 C48 N8 O16'
_cell_volume   1285.80696952
_cell_formula_units_Z   4
loop_
 _symmetry_equiv_pos_site_id
 _symmetry_equiv_pos_as_xyz
  1  'x, y, z'
loop_
 _atom_site_type_symbol
 _atom_site_label
 _atom_site_symmetry_multiplicity
 _atom_site_fract_x
 _atom_site_fract_y
 _atom_site_fract_z
 _atom_site_occupancy
 _atom_site_charge
Co  Co0  1  0.00000000  0.50000000  0.00000000  1 0.9286804
Co  Co1  1  0.00000000  0.00000000  0.50000000  1 0.92458946
Co  Co2  1  0.50000000  0.00000000  0.50000000  1 0.9286804
Co  Co3  1  0.50000000  0.50000000  0.00000000  1 0.9286804
H  H4  1  0.35340000  0.06950000  0.20750000  1 0.10727658
H  H5  1  0.64660000  0.56950000  0.29250000  1 0.10727658
H  H6  1  0.64660000  0.93050000  0.79250000  1 0.10727658
H  H7  1  0.35340000  0.43050000  0.70750000  1 0.10727658
H  H8  1  0.30250000  0.21090000  0.08170000  1 0.13111962
H  H9  1  0.69750000  0.71090000  0.41830000  1 0.13111962
H  H10  1  0.69750000  0.78910000  0.91830000  1 0.13111962
H  H11  1  0.30250000  0.28910000  0.58170000  1 0.13111962
H  H12  1  0.47660000  0.38040000  0.40980000  1 0.14279635
H  H13  1  0.52340000  0.88040000  0.09020000  1 0.14279635
H  H14  1  0.52340000  0.61960000  0.59020000  1 0.14279635
H  H15  1  0.47660000  0.11960000  0.90980000  1 0.14279635
H  H16  1  0.53410000  0.23290000  0.52920000  1 0.10209043
H  H17  1  0.46590000  0.73290000  0.97080000  1 0.10209043
H  H18  1  0.46590000  0.76710000  0.47080000  1 0.10209043
H  H19  1  0.53410000  0.26710000  0.02920000  1 0.10209043
H  H20  1  0.12790000  0.39220000  0.85640000  1 0.10727658
H  H21  1  0.87210000  0.89220000  0.64360000  1 0.10727658
H  H22  1  0.87210000  0.60780000  0.14360000  1 0.10727658
H  H23  1  0.12790000  0.10780000  0.35640000  1 0.10727658
H  H24  1  0.08510000  0.24810000  0.73300000  1 0.13111962
H  H25  1  0.91490000  0.74810000  0.76700000  1 0.13111962
H  H26  1  0.91490000  0.75190000  0.26700000  1 0.13111962
H  H27  1  0.08510000  0.25190000  0.23300000  1 0.13111962
H  H28  1  0.74120000  0.15880000  0.79360000  1 0.13111962
H  H29  1  0.25880000  0.65880000  0.70640000  1 0.13111962
H  H30  1  0.25880000  0.84120000  0.20640000  1 0.13111962
H  H31  1  0.74120000  0.34120000  0.29360000  1 0.13111962
H  H32  1  0.79140000  0.30510000  0.91140000  1 0.10727658
H  H33  1  0.20860000  0.80510000  0.58860000  1 0.10727658
H  H34  1  0.20860000  0.69490000  0.08860000  1 0.10727658
H  H35  1  0.79140000  0.19490000  0.41140000  1 0.10727658
C  C36  1  0.38120000  0.13300000  0.24990000  1 0.08712933
C  C37  1  0.61880000  0.63300000  0.25010000  1 0.08712933
C  C38  1  0.61880000  0.86700000  0.75010000  1 0.08712933
C  C39  1  0.38120000  0.36700000  0.74990000  1 0.08712933
C  C40  1  0.34920000  0.21740000  0.17340000  1 -0.17243315
C  C41  1  0.65080000  0.71740000  0.32660000  1 -0.17243315
C  C42  1  0.65080000  0.78260000  0.82660000  1 -0.17243315
C  C43  1  0.34920000  0.28260000  0.67340000  1 -0.17243315
C  C44  1  0.38610000  0.31230000  0.23210000  1 0.03180609
C  C45  1  0.61390000  0.81230000  0.26790000  1 0.03180609
C  C46  1  0.61390000  0.68770000  0.76790000  1 0.03180609
C  C47  1  0.38610000  0.18770000  0.73210000  1 0.03180609
C  C48  1  0.45300000  0.31750000  0.36660000  1 -0.1798416
C  C49  1  0.54700000  0.81750000  0.13340000  1 -0.1798416
C  C50  1  0.54700000  0.68250000  0.63340000  1 -0.1798416
C  C51  1  0.45300000  0.18250000  0.86660000  1 -0.1798416
C  C52  1  0.48480000  0.22830000  0.43690000  1 0.06718662
C  C53  1  0.51520000  0.72830000  0.06310000  1 0.06718662
C  C54  1  0.51520000  0.77170000  0.56310000  1 0.06718662
C  C55  1  0.48480000  0.27170000  0.93690000  1 0.06718662
C  C56  1  0.36070000  0.40720000  0.15330000  1 0.5705265
C  C57  1  0.63930000  0.90720000  0.34670000  1 0.5705265
C  C58  1  0.63930000  0.59280000  0.84670000  1 0.5705265
C  C59  1  0.36070000  0.09280000  0.65330000  1 0.5705265
C  C60  1  0.04770000  0.34440000  0.84220000  1 0.07522196
C  C61  1  0.95230000  0.84440000  0.65780000  1 0.07522196
C  C62  1  0.95230000  0.65560000  0.15780000  1 0.07522196
C  C63  1  0.04770000  0.15560000  0.34220000  1 0.07522196
C  C64  1  0.02290000  0.25820000  0.76800000  1 -0.1647116
C  C65  1  0.97710000  0.75820000  0.73200000  1 -0.1647116
C  C66  1  0.97710000  0.74180000  0.23200000  1 -0.1647116
C  C67  1  0.02290000  0.24180000  0.26800000  1 -0.1647116
C  C68  1  0.90500000  0.18780000  0.74660000  1 0.016575158
C  C69  1  0.09500000  0.68780000  0.75340000  1 0.016575158
C  C70  1  0.09500000  0.81220000  0.25340000  1 0.016575158
C  C71  1  0.90500000  0.31220000  0.24660000  1 0.016575158
C  C72  1  0.81990000  0.20610000  0.80370000  1 -0.17243315
C  C73  1  0.18010000  0.70610000  0.69630000  1 -0.17243315
C  C74  1  0.18010000  0.79390000  0.19630000  1 -0.17243315
C  C75  1  0.81990000  0.29390000  0.30370000  1 -0.17243315
C  C76  1  0.85150000  0.29360000  0.87480000  1 0.08712933
C  C77  1  0.14850000  0.79360000  0.62520000  1 0.08712933
C  C78  1  0.14850000  0.70640000  0.12520000  1 0.08712933
C  C79  1  0.85150000  0.20640000  0.37480000  1 0.08712933
C  C80  1  0.87070000  0.09490000  0.66140000  1 0.57515883
C  C81  1  0.12930000  0.59490000  0.83860000  1 0.57515883
C  C82  1  0.12930000  0.90510000  0.33860000  1 0.57515883
C  C83  1  0.87070000  0.40510000  0.16140000  1 0.57515883
N  N84  1  0.44960000  0.13550000  0.38130000  1 -0.24132758
N  N85  1  0.55040000  0.63550000  0.11870000  1 -0.24132758
N  N86  1  0.55040000  0.86450000  0.61870000  1 -0.24132758
N  N87  1  0.44960000  0.36450000  0.88130000  1 -0.24132758
N  N88  1  0.96250000  0.36270000  0.89460000  1 -0.24132758
N  N89  1  0.03750000  0.86270000  0.60540000  1 -0.24132758
N  N90  1  0.03750000  0.63730000  0.10540000  1 -0.24132758
N  N91  1  0.96250000  0.13730000  0.39460000  1 -0.24132758
O  O92  1  0.45320000  0.41035000  0.11340000  1 -0.56814224
O  O93  1  0.54680000  0.91035000  0.38660000  1 -0.56814224
O  O94  1  0.54680000  0.58965000  0.88660000  1 -0.56814224
O  O95  1  0.45320000  0.08965000  0.61340000  1 -0.56814224
O  O96  1  0.26070000  0.47373000  0.13820000  1 -0.54398453
O  O97  1  0.73930000  0.97373000  0.36180000  1 -0.54398453
O  O98  1  0.73930000  0.52627000  0.86180000  1 -0.54398453
O  O99  1  0.26070000  0.02627000  0.63820000  1 -0.54398453
O  O100  1  0.96400000  0.08251000  0.62530000  1 -0.5461243
O  O101  1  0.03600000  0.58251000  0.87470000  1 -0.5461243
O  O102  1  0.03600000  0.91749000  0.37470000  1 -0.5461243
O  O103  1  0.96400000  0.41749000  0.12530000  1 -0.5461243
O  O104  1  0.75050000  0.03861000  0.63610000  1 -0.56814224
O  O105  1  0.24950000  0.53861000  0.86390000  1 -0.56814224
O  O106  1  0.24950000  0.96139000  0.36390000  1 -0.56814224
O  O107  1  0.75050000  0.46139000  0.13610000  1 -0.56814224
