
#######################################################################
#
#                 Cambridge Crystallographic Data Centre
#                                CCDC 
#
#######################################################################
#
# If this CIF has been generated from an entry in the Cambridge 
# Structural Database, then it will include bibliographic, chemical, 
# crystal, experimental, refinement or atomic coordinate data resulting 
# from the CCDC's data processing and validation procedures.
#
#######################################################################

data_ABUXUT
_symmetry_cell_setting           triclinic
_symmetry_space_group_name_H-M   'P -1'
_symmetry_Int_Tables_number      2
_space_group_name_Hall           '-P 1'
loop_
_symmetry_equiv_pos_site_id
_symmetry_equiv_pos_as_xyz
1 x,y,z
2 -x,-y,-z
_cell_length_a                   5.7315(19)
_cell_length_b                   8.915(3)
_cell_length_c                   18.554(6)
_cell_angle_alpha                76.760(6)
_cell_angle_beta                 81.312(6)
_cell_angle_gamma                82.111(6)
_cell_volume                     907.046
loop_
_atom_site_label
_atom_site_type_symbol
_atom_site_fract_x
_atom_site_fract_y
_atom_site_fract_z
Cu1 Cu -0.01873(14) 0.57981(9) 0.42031(4)
C1 C 0.1035(17) 0.7031(11) 0.2576(5)
H1 H -0.0400 0.7643 0.2637
O1 O 0.4123(9) 0.7030(6) 0.4377(3)
N1 N 0.1784(11) 0.6029(7) 0.3162(3)
Cu2 Cu 0.5000 0.5000 0.5000
O2 O 0.7716(9) 0.7593(6) 0.3791(3)
C2 C 0.2305(19) 0.7189(12) 0.1884(5)
H2 H 0.1738 0.7918 0.1488
N2 N 0.5215(17) 0.5927(11) 0.0487(4)
O3 O 0.8006(9) 1.3837(5) 0.4059(3)
C3 C 0.4434(15) 0.6277(10) 0.1765(4)
O4 O 1.1013(10) 1.2050(6) 0.4362(4)
C4 C 0.5206(17) 0.5272(12) 0.2376(5)
H3 H 0.6651 0.4662 0.2332
O5 O 0.7569(15) 0.7241(12) 0.0889(4)
C5 C 0.3851(16) 0.5165(11) 0.3052(5)
H4 H 0.4393 0.4454 0.3458
O6 O 0.2083(8) 0.4379(5) 0.4794(3)
H5 H 0.2348 0.3410 0.4810
C6 C 0.5877(18) 0.6510(12) 0.1007(5)
C7 C 0.645(2) 0.6241(16) -0.0277(6)
H6 H 0.5464 0.6999 -0.0597
H7 H 0.7917 0.6670 -0.0280
C8 C 0.696(2) 0.4850(18) -0.0558(7)
H8 H 0.8130 0.4152 -0.0283
H9 H 0.7622 0.5097 -0.1079
C9 C 0.5518(13) 0.7907(8) 0.3934(4)
C10 C 0.4393(13) 0.9473(8) 0.3526(4)
H10 H 0.3167 0.9298 0.3256
H11 H 0.3647 1.0074 0.3890
C11 C 0.6161(14) 1.0372(8) 0.2995(4)
C12 C 0.6380(16) 1.0344(9) 0.2244(5)
H12 H 0.5313 0.9835 0.2081
C13 C 0.8139(19) 1.1049(11) 0.1722(5)
H13 H 0.8230 1.1026 0.1220
C14 C 0.9727(19) 1.1775(11) 0.1965(5)
H14 H 1.0947 1.2218 0.1630
C15 C 0.9523(16) 1.1855(9) 0.2715(5)
H15 H 1.0594 1.2374 0.2870
C16 C 0.7765(14) 1.1179(8) 0.3234(4)
C17 C 0.7602(14) 1.1233(8) 0.4043(4)
H16 H 0.8199 1.0228 0.4319
H17 H 0.5948 1.1439 0.4236
C18 C 0.8990(13) 1.2462(8) 0.4173(4)
C1A C 0.8965(17) 0.2969(11) -0.2576(5)
H1A H 1.0400 0.2357 -0.2637
N1A N 0.8216(11) 0.3971(7) -0.3162(3)
C2A C 0.7695(19) 0.2811(12) -0.1884(5)
H2A H 0.8262 0.2082 -0.1488
N2A N 0.4785(17) 0.4073(11) -0.0487(4)
C3A C 0.5566(15) 0.3723(10) -0.1765(4)
C4A C 0.4794(17) 0.4728(12) -0.2376(5)
H3A H 0.3349 0.5338 -0.2332
O5A O 0.2431(15) 0.2759(12) -0.0889(4)
C5A C 0.6149(16) 0.4835(11) -0.3052(5)
H4A H 0.5607 0.5546 -0.3458
C6A C 0.4123(18) 0.3490(12) -0.1007(5)
C7A C 0.355(2) 0.3759(16) 0.0277(6)
H6A H 0.4536 0.3001 0.0597
H7A H 0.2083 0.3330 0.0280
C8A C 0.304(2) 0.5150(18) 0.0558(7)
H8A H 0.1870 0.5848 0.0283
H9A H 0.2378 0.4903 0.1079
Cu1A Cu 0.01873(14) 0.42019(9) 0.57969(4)
O6A O -0.2083(8) 0.5621(5) 0.5206(3)
H5A H -0.2348 0.6590 0.5190
O1_2 O -0.5877(9) 0.7030(6) 0.4377(3)
O2_2 O -0.2284(9) 0.7593(6) 0.3791(3)
O3_2 O -0.1994(9) 1.3837(5) 0.4059(3)
O4_2 O 0.1013(10) 1.2050(6) 0.4362(4)
C9_2 C -0.4482(13) 0.7907(8) 0.3934(4)
C10_2 C -0.5607(13) 0.9473(8) 0.3526(4)
H10_2 H -0.6833 0.9298 0.3256
H11_2 H -0.6353 1.0074 0.3890
C11_2 C -0.3839(14) 1.0372(8) 0.2995(4)
C12_2 C -0.3620(16) 1.0344(9) 0.2244(5)
H12_2 H -0.4687 0.9835 0.2081
C13_2 C -0.1861(19) 1.1049(11) 0.1722(5)
H13_2 H -0.1770 1.1026 0.1220
C14_2 C -0.0273(19) 1.1775(11) 0.1965(5)
H14_2 H 0.0947 1.2218 0.1630
C15_2 C -0.0477(16) 1.1855(9) 0.2715(5)
H15_2 H 0.0594 1.2374 0.2870
C16_2 C -0.2235(14) 1.1179(8) 0.3234(4)
C17_2 C -0.2398(14) 1.1233(8) 0.4043(4)
H16_2 H -0.1801 1.0228 0.4319
H17_2 H -0.4052 1.1439 0.4236
C18_2 C -0.1010(13) 1.2462(8) 0.4173(4)
Cu1_2 Cu -0.01873(14) 1.57981(9) 0.42031(4)
Cu1_3 Cu 0.98127(14) 0.57981(9) 0.42031(4)
Cu1_4 Cu 0.98127(14) 1.57981(9) 0.42031(4)
Cu1A_2 Cu 1.01873(14) 0.42019(9) -0.42031(4)
O1A O 0.5877(9) 0.2970(6) 0.5623(3)
N1A_2 N -0.1784(11) 0.3971(7) 0.6838(3)
Cu2_2 Cu -0.5000 0.5000 0.5000
Cu2_3 Cu -0.5000 1.5000 0.5000
Cu2_4 Cu 0.5000 1.5000 0.5000
O2A O 0.2284(9) 0.2407(6) 0.6209(3)
O3_3 O -0.1994(9) 0.3837(5) 0.4059(3)
O3_4 O 0.8006(9) 0.3837(5) 0.4059(3)
O3A O 0.1994(9) 0.6163(5) 0.5941(3)
O6A_2 O 0.7917(8) 0.5621(5) 0.5206(3)
loop_
_geom_bond_atom_site_label_1
_geom_bond_atom_site_label_2
_geom_bond_site_symmetry_1
_geom_bond_site_symmetry_2
Cu1 N1 1_555 1_555
C1 H1 1_555 1_555
O1 Cu2 1_555 1_555
N1 C1 1_555 1_555
Cu2 O6 1_555 1_555
O2 C9 1_555 1_555
C2 C1 1_555 1_555
H2 C2 1_555 1_555
N2 C6 1_555 1_555
O3 C18 1_555 1_555
C3 C2 1_555 1_555
O4 C18 1_555 1_555
C4 C3 1_555 1_555
H3 C4 1_555 1_555
O5 C6 1_555 1_555
C5 N1 1_555 1_555
H4 C5 1_555 1_555
O6 Cu1 1_555 1_555
H5 O6 1_555 1_555
C6 C3 1_555 1_555
C7 N2 1_555 1_555
H6 C7 1_555 1_555
H7 C7 1_555 1_555
C8 C7 1_555 1_555
H8 C8 1_555 1_555
H9 C8 1_555 1_555
C9 O1 1_555 1_555
C10 C9 1_555 1_555
H10 C10 1_555 1_555
H11 C10 1_555 1_555
C11 C10 1_555 1_555
C12 C11 1_555 1_555
H12 C12 1_555 1_555
C13 C12 1_555 1_555
H13 C13 1_555 1_555
C14 C13 1_555 1_555
H14 C14 1_555 1_555
C15 C14 1_555 1_555
H15 C15 1_555 1_555
C16 C11 1_555 1_555
C17 C16 1_555 1_555
H16 C17 1_555 1_555
H17 C17 1_555 1_555
C18 C17 1_555 1_555
C1A H1A 1_555 1_555
N1A C1A 1_555 1_555
C2A C1A 1_555 1_555
H2A C2A 1_555 1_555
N2A C8 1_555 1_555
C3A C2A 1_555 1_555
C4A C3A 1_555 1_555
H3A C4A 1_555 1_555
O5A C6A 1_555 1_555
C5A N1A 1_555 1_555
H4A C5A 1_555 1_555
C6A N2A 1_555 1_555
C7A N2A 1_555 1_555
H6A C7A 1_555 1_555
H7A C7A 1_555 1_555
C8A N2 1_555 1_555
H8A C8A 1_555 1_555
H9A C8A 1_555 1_555
Cu1A O6 1_555 1_555
O6A Cu1 1_555 1_555
H5A O6A 1_555 1_555
O1_2 C9_2 1_555 1_555
O2_2 Cu1 1_555 1_555
O3_2 C18_2 1_555 1_555
O4_2 C18_2 1_555 1_555
C9_2 O2_2 1_555 1_555
C10_2 C9_2 1_555 1_555
H10_2 C10_2 1_555 1_555
H11_2 C10_2 1_555 1_555
C11_2 C10_2 1_555 1_555
C12_2 C11_2 1_555 1_555
H12_2 C12_2 1_555 1_555
C13_2 C12_2 1_555 1_555
H13_2 C13_2 1_555 1_555
C14_2 C13_2 1_555 1_555
H14_2 C14_2 1_555 1_555
C15_2 C14_2 1_555 1_555
H15_2 C15_2 1_555 1_555
C16_2 C11_2 1_555 1_555
C17_2 C16_2 1_555 1_555
H16_2 C17_2 1_555 1_555
H17_2 C17_2 1_555 1_555
C18_2 C17_2 1_555 1_555
Cu1_2 O3_2 1_555 1_555
Cu1_3 O2 1_555 1_555
Cu1_4 O3 1_555 1_555
Cu1A_2 N1A 1_555 1_555
O1A Cu2 1_555 1_555
N1A_2 Cu1A 1_555 1_555
Cu2_2 O6A 1_555 1_555
Cu2_3 O3_2 1_555 1_555
Cu2_4 O3 1_555 1_555
O2A Cu1A 1_555 1_555
O3_3 Cu1 1_555 1_555
O3_4 Cu2 1_555 1_555
O3A Cu2 1_555 1_555
O6A_2 Cu2 1_555 1_555
C4 C5 1_555 1_555
C15 C16 1_555 1_555
C3A C6A 1_555 1_555
C4A C5A 1_555 1_555
C7A C8A 1_555 1_555
Cu1A O6A 1_555 1_555
Cu1A O3A 1_555 1_555
O1_2 Cu2_2 1_555 1_555
C15_2 C16_2 1_555 1_555
Cu1_3 O3_4 1_555 1_555
Cu1_3 O6A_2 1_555 1_555
Cu2_2 O3_3 1_555 1_555

#END
