
#######################################################################
#
#                 Cambridge Crystallographic Data Centre
#                                CCDC 
#
#######################################################################
#
# If this CIF has been generated from an entry in the Cambridge 
# Structural Database, then it will include bibliographic, chemical, 
# crystal, experimental, refinement or atomic coordinate data resulting 
# from the CCDC's data processing and validation procedures.
#
#######################################################################

data_AFADAN
_symmetry_cell_setting           rhombohedral
_symmetry_space_group_name_H-M   'R -3'
_symmetry_Int_Tables_number      148
_space_group_name_Hall           '-R 3'
loop_
_symmetry_equiv_pos_site_id
_symmetry_equiv_pos_as_xyz
1 x,y,z
2 -y,x-y,z
3 -x+y,-x,z
4 1/3+x,2/3+y,2/3+z
5 2/3+x,1/3+y,1/3+z
6 2/3-y,1/3+x-y,1/3+z
7 2/3-x+y,1/3-x,1/3+z
8 1/3-y,2/3+x-y,2/3+z
9 1/3-x+y,2/3-x,2/3+z
10 -x,-y,-z
11 y,-x+y,-z
12 x-y,x,-z
13 2/3-x,1/3-y,1/3-z
14 1/3-x,2/3-y,2/3-z
15 1/3+y,2/3-x+y,2/3-z
16 1/3+x-y,2/3+x,2/3-z
17 2/3+y,1/3-x+y,1/3-z
18 2/3+x-y,1/3+x,1/3-z
_cell_length_a                   18.7916(14)
_cell_length_b                   18.7916(14)
_cell_length_c                   7.966(2)
_cell_angle_alpha                90
_cell_angle_beta                 90
_cell_angle_gamma                120
_cell_volume                     2436.12
loop_
_atom_site_label
_atom_site_type_symbol
_atom_site_fract_x
_atom_site_fract_y
_atom_site_fract_z
Fe1 Fe 0.00000 0.00000 0.00000
N1 N 0.11170(12) 0.22141(11) 0.2933(3)
N2 N 0.14555(15) 0.18372(13) 0.3794(3)
N3 N 0.07295(9) 0.10760(9) 0.1592(2)
C1 C 0.11987(15) 0.11514(14) 0.2944(3)
C2 C 0.06973(14) 0.17602(12) 0.1629(3)
C3 C 0.1231(2) 0.30086(14) 0.3486(4)
H1 H 0.1327 0.0756 0.3243
H2 H 0.0423 0.1902 0.086
H3 H 0.1106 0.2986 0.465
H4 H 0.0870 0.3134 0.288
Fe1C Fe 0.33333 0.66667 0.66667
Fe1C_2 Fe -0.66667 -0.33333 0.66667
Fe1C_3 Fe 0.33333 -0.33333 0.66667
N1M N 0.22163(12) 0.44526(11) 0.3734(3)
N1A N -0.22141(11) -0.10971(16) 0.2933(3)
N1N N -0.44526(11) -0.22362(16) 0.3734(3)
N1B N 0.10971(16) -0.11170(12) 0.2933(3)
N1O N 0.22362(16) -0.22163(12) 0.3734(3)
N2M N 0.18778(15) 0.48295(13) 0.2873(3)
N2A N -0.18372(13) -0.03817(20) 0.3794(3)
N2N N -0.48295(13) -0.29516(20) 0.2873(3)
N2B N 0.03817(20) -0.14555(15) 0.3794(3)
N2O N 0.29516(20) -0.18778(15) 0.2873(3)
N3M N 0.26038(9) 0.55907(9) 0.5075(2)
N3A N -0.10760(9) -0.03465(13) 0.1592(2)
N3N N -0.55907(9) -0.29868(13) 0.5075(2)
N3B N 0.03465(13) -0.07295(9) 0.1592(2)
N3O N 0.29868(13) -0.26038(9) 0.5075(2)
N3I N -0.07295(9) -0.10760(9) -0.1592(2)
N3J N 0.10760(9) 0.03465(13) -0.1592(2)
N3K N -0.03465(13) 0.07295(9) -0.1592(2)
C1M C 0.21346(15) 0.55153(14) 0.3723(3)
C1A C -0.11514(14) 0.00473(21) 0.2944(3)
C1N C -0.55153(14) -0.33806(21) 0.3723(3)
C1B C -0.00473(21) -0.11987(15) 0.2944(3)
C1O C 0.33806(21) -0.21346(15) 0.3723(3)
C2M C 0.26360(14) 0.49065(12) 0.5038(3)
C2A C -0.17602(12) -0.10629(18) 0.1629(3)
C2N C -0.49065(12) -0.22704(18) 0.5038(3)
C2B C 0.10629(18) -0.06973(14) 0.1629(3)
C2O C 0.22704(18) -0.26360(14) 0.5038(3)
C3M C 0.2102(2) 0.36581(14) 0.3181(4)
C3A C -0.30086(14) -0.17776(24) 0.3486(4)
C3N C -0.36581(14) -0.15557(24) 0.3181(4)
C3B C 0.17776(24) -0.1231(2) 0.3486(4)
C3O C 0.15557(24) -0.2102(2) 0.3181(4)
H1M H 0.2006 0.5911 0.3424
H1A H -0.0756 0.0571 0.3243
H1N H -0.5911 -0.3904 0.3424
H1B H -0.0571 -0.1327 0.3243
H1O H 0.3904 -0.2006 0.3424
H2M H 0.2910 0.4765 0.580667
H2A H -0.1902 -0.1479 0.086
H2N H -0.4765 -0.1854 0.580667
H2B H 0.1479 -0.0423 0.086
H2O H 0.1854 -0.2910 0.580667
H3M H 0.2227 0.3681 0.201667
H3A H -0.2986 -0.1880 0.465
H3N H -0.3681 -0.1453 0.201667
H3B H 0.1880 -0.1106 0.465
H3O H 0.1453 -0.2227 0.201667
H4M H 0.2463 0.3533 0.378667
H4A H -0.3134 -0.2264 0.288
H4N H -0.3533 -0.1069 0.378667
H4B H 0.2264 -0.0870 0.288
H4O H 0.1069 -0.2463 0.378667
loop_
_geom_bond_atom_site_label_1
_geom_bond_atom_site_label_2
_geom_bond_site_symmetry_1
_geom_bond_site_symmetry_2
Fe1 N3 1_555 1_555
N1 N2 1_555 1_555
N2 C1 1_555 1_555
N3 C1 1_555 1_555
C1 H1 1_555 1_555
C2 N1 1_555 1_555
C3 N1 1_555 1_555
H2 C2 1_555 1_555
H3 C3 1_555 1_555
H4 C3 1_555 1_555
Fe1C N3M 1_555 1_555
Fe1C_2 N3N 1_555 1_555
Fe1C_3 N3O 1_555 1_555
N1M N2M 1_555 1_555
N1A N2A 1_555 1_555
N1N N2N 1_555 1_555
N1B N2B 1_555 1_555
N1O N2O 1_555 1_555
N2M C1M 1_555 1_555
N2A C1A 1_555 1_555
N2N C1N 1_555 1_555
N2B C1B 1_555 1_555
N2O C1O 1_555 1_555
N3M C1M 1_555 1_555
N3A Fe1 1_555 1_555
N3N C1N 1_555 1_555
N3B Fe1 1_555 1_555
N3O C1O 1_555 1_555
N3I Fe1 1_555 1_555
N3J Fe1 1_555 1_555
N3K Fe1 1_555 1_555
C1M H1M 1_555 1_555
C1A N3A 1_555 1_555
C1N H1N 1_555 1_555
C1B N3B 1_555 1_555
C1O H1O 1_555 1_555
C2M N1M 1_555 1_555
C2A N1A 1_555 1_555
C2N N1N 1_555 1_555
C2B N1B 1_555 1_555
C2O N1O 1_555 1_555
C3M C3 1_555 1_555
C3A N1A 1_555 1_555
C3N N1N 1_555 1_555
C3B N1B 1_555 1_555
C3O N1O 1_555 1_555
H1A C1A 1_555 1_555
H1B C1B 1_555 1_555
H2M C2M 1_555 1_555
H2A C2A 1_555 1_555
H2N C2N 1_555 1_555
H2B C2B 1_555 1_555
H2O C2O 1_555 1_555
H3M C3M 1_555 1_555
H3A C3A 1_555 1_555
H3N C3N 1_555 1_555
H3B C3B 1_555 1_555
H3O C3O 1_555 1_555
H4M C3M 1_555 1_555
H4A C3A 1_555 1_555
H4N C3N 1_555 1_555
H4B C3B 1_555 1_555
H4O C3O 1_555 1_555
N3 C2 1_555 1_555
N1M C3M 1_555 1_555
N3M C2M 1_555 1_555
N3A C2A 1_555 1_555
N3N C2N 1_555 1_555
N3B C2B 1_555 1_555
N3O C2O 1_555 1_555
C3A C3N 1_555 1_555
C3B C3O 1_555 1_555

#END
