
#######################################################################
#
#                 Cambridge Crystallographic Data Centre
#                                CCDC 
#
#######################################################################
#
# If this CIF has been generated from an entry in the Cambridge 
# Structural Database, then it will include bibliographic, chemical, 
# crystal, experimental, refinement or atomic coordinate data resulting 
# from the CCDC's data processing and validation procedures.
#
#######################################################################

data_ANAGOO
_symmetry_cell_setting           monoclinic
_symmetry_space_group_name_H-M   'C 2/c'
_symmetry_Int_Tables_number      15
_space_group_name_Hall           '-C 2yc'
loop_
_symmetry_equiv_pos_site_id
_symmetry_equiv_pos_as_xyz
1 x,y,z
2 -x,y,1/2-z
3 1/2+x,1/2+y,z
4 1/2-x,1/2+y,1/2-z
5 -x,-y,-z
6 x,-y,1/2+z
7 1/2-x,1/2-y,-z
8 1/2+x,1/2-y,1/2+z
_cell_length_a                   18.821(4)
_cell_length_b                   27.177(5)
_cell_length_c                   17.704(4)
_cell_angle_alpha                90
_cell_angle_beta                 108.97(3)
_cell_angle_gamma                90
_cell_volume                     8563.75
loop_
_atom_site_label
_atom_site_type_symbol
_atom_site_fract_x
_atom_site_fract_y
_atom_site_fract_z
Cd1 Cd 0.5000 0.0000 1.0000
O1 O 0.3897(2) 0.00603(13) 0.8951(2)
N1 N 0.1465(3) 0.32051(14) 1.3500(3)
N2 N 0.3232(3) 0.15107(15) 1.1675(3)
O2 O 0.1316(2) 0.37354(13) 1.2470(2)
O3 O 0.3062(3) 0.20173(16) 1.0630(2)
N3 N 0.4373(3) 0.05176(15) 1.0642(3)
O4 O 0.1541(3) 0.26699(15) 1.4498(3)
C1 C 0.2476(3) 0.21678(18) 1.2377(3)
O5 O 0.3385(3) 0.09843(16) 1.2704(3)
C2 C 0.1124(3) 0.35658(18) 1.3889(3)
C3 C 0.2960(3) 0.1937(2) 1.1257(3)
C4 C 0.2111(3) 0.25121(18) 1.2735(3)
C5 C 0.1521(3) 0.33363(19) 1.2754(3)
C6 C 0.1649(4) 0.27449(19) 1.3871(4)
C7 C 0.1860(3) 0.29639(18) 1.2352(3)
C8 C 0.3626(3) 0.11766(18) 1.1321(3)
C9 C 0.2015(4) 0.23900(19) 1.3471(3)
C10 C 0.3149(4) 0.1373(2) 1.2413(4)
C11 C 0.2558(3) 0.22879(18) 1.1627(3)
C12 C 0.1932(3) 0.3061(2) 1.1616(3)
H1 H 0.1750 0.3363 1.1353
C13 C 0.2274(4) 0.2715(2) 1.1256(3)
H2 H 0.2307 0.2782 1.0742
C14 C 0.4381(3) 0.12242(19) 1.1457(3)
H3 H 0.4656 0.1483 1.1783
C15 C 0.2741(4) 0.1727(2) 1.2755(3)
C16 C 0.3667(3) 0.01122(17) 0.8209(4)
C17 C 0.4741(3) 0.08848(18) 1.1109(3)
H4 H 0.5266 0.0917 1.1208
C18 C 0.3638(3) 0.0485(2) 1.0516(4)
H5 H 0.3370 0.0228 1.0179
C19 C 0.4191(3) 0.00898(17) 0.7732(3)
H6 H 0.4711 0.0108 0.8092
H7 H 0.4090 0.0367 0.7358
H8 H 0.4115 -0.0220 0.7434
C20 C 0.2623(5) 0.1615(2) 1.3471(4)
H9 H 0.2806 0.1313 1.3731
N4 N 0.2940(3) 0.0193(2) 0.7843(3)
C21 C 0.2237(5) 0.1943(2) 1.3817(4)
H10 H 0.2133 0.1853 1.4289
C22 C 0.3233(4) 0.0799(2) 1.0839(4)
H11 H 0.2709 0.0757 1.0735
C23 C 0.2610(5) 0.0245(3) 0.6976(4)
H12 H 0.2951 0.0435 0.6771
H13 H 0.2127 0.0417 0.6848
H14 H 0.2531 -0.0081 0.6727
C24 C 0.2415(5) 0.0227(5) 0.8291(6)
H15 H 0.2602 0.0031 0.8780
H16 H 0.1923 0.0102 0.7963
H17 H 0.2367 0.0572 0.8431
C25 C 0.1247(3) 0.42145(19) 1.4812(3)
H18 H 0.1568 0.4414 1.5223
C26 C 0.0069(3) 0.39852(18) 1.4049(4)
H19 H -0.0461 0.4022 1.3900
C27 C 0.0366(3) 0.36151(19) 1.3681(4)
H20 H 0.0042 0.3403 1.3294
C28 C 0.1572(3) 0.3860(2) 1.4459(4)
H21 H 0.2102 0.3826 1.4618
N5 N 0.0510(2) 0.42859(14) 1.4601(3)
O1D O 0.6103(2) -0.00603(13) 1.1049(2)
N1D N 0.8535(3) -0.32051(14) 0.6500(3)
N2D N 0.6768(3) -0.15107(15) 0.8325(3)
O2D O 0.8684(2) -0.37354(13) 0.7530(2)
O3D O 0.6938(3) -0.20173(16) 0.9370(2)
N3D N 0.5627(3) -0.05176(15) 0.9358(3)
O4D O 0.8459(3) -0.26699(15) 0.5502(3)
C1D C 0.7524(3) -0.21678(18) 0.7623(3)
O5D O 0.6615(3) -0.09843(16) 0.7296(3)
C2D C 0.8876(3) -0.35658(18) 0.6111(3)
C3D C 0.7040(3) -0.1937(2) 0.8743(3)
C4D C 0.7889(3) -0.25121(18) 0.7265(3)
C5D C 0.8479(3) -0.33363(19) 0.7246(3)
C6D C 0.8351(4) -0.27449(19) 0.6129(4)
C7D C 0.8140(3) -0.29639(18) 0.7648(3)
C8D C 0.6374(3) -0.11766(18) 0.8679(3)
C9D C 0.7985(4) -0.23900(19) 0.6529(3)
C10D C 0.6851(4) -0.1373(2) 0.7587(4)
C11D C 0.7442(3) -0.22879(18) 0.8373(3)
C12D C 0.8068(3) -0.3061(2) 0.8384(3)
H1D H 0.8250 -0.3363 0.8647
C13D C 0.7726(4) -0.2715(2) 0.8744(3)
H2D H 0.7693 -0.2782 0.9258
C14D C 0.5619(3) -0.12242(19) 0.8543(3)
H3D H 0.5344 -0.1483 0.8217
C15D C 0.7259(4) -0.1727(2) 0.7245(3)
C16D C 0.6333(3) -0.01122(17) 1.1791(4)
C17D C 0.5259(3) -0.08848(18) 0.8891(3)
H4D H 0.4734 -0.0917 0.8792
C18D C 0.6362(3) -0.0485(2) 0.9484(4)
H5D H 0.6630 -0.0228 0.9821
C19D C 0.5809(3) -0.00898(17) 1.2268(3)
H6D H 0.5289 -0.0108 1.1908
H7D H 0.5910 -0.0367 1.2642
H8D H 0.5885 0.0220 1.2566
C20D C 0.7377(5) -0.1615(2) 0.6529(4)
H9D H 0.7194 -0.1313 0.6269
N4D N 0.7060(3) -0.0193(2) 1.2157(3)
C21D C 0.7763(5) -0.1943(2) 0.6183(4)
H10D H 0.7867 -0.1853 0.5711
C22D C 0.6767(4) -0.0799(2) 0.9161(4)
H11D H 0.7291 -0.0757 0.9265
C23D C 0.7390(5) -0.0245(3) 1.3024(4)
H12D H 0.7049 -0.0435 1.3229
H13D H 0.7873 -0.0417 1.3152
H14D H 0.7469 0.0081 1.3273
C24D C 0.7585(5) -0.0227(5) 1.1709(6)
H15D H 0.7398 -0.0031 1.1220
H16D H 0.8077 -0.0102 1.2037
H17D H 0.7633 -0.0572 1.1569
C25D C 0.8753(3) -0.42145(19) 0.5188(3)
H18D H 0.8432 -0.4414 0.4777
C26D C 0.9931(3) -0.39852(18) 0.5951(4)
H19D H 1.0461 -0.4022 0.6100
C27D C 0.9634(3) -0.36151(19) 0.6319(4)
H20D H 0.9958 -0.3403 0.6706
C28D C 0.8428(3) -0.3860(2) 0.5541(4)
H21D H 0.7898 -0.3826 0.5382
N5D N 0.9490(2) -0.42859(14) 0.5399(3)
Cd1C Cd 0.0000 0.5000 1.5000
Cd1C_2 Cd 1.0000 -0.5000 0.5000
N5C N 0.4490(2) -0.07141(14) 1.0399(3)
N5G N 0.5510(2) 0.07141(14) 0.9601(3)
Cl1 Cl 0.15214(11) 0.05489(8) 0.47297(13)
O6 O 0.2118(3) 0.0216(3) 0.5015(4)
O7 O 0.1225(7) 0.0621(5) 0.5337(6)
O8 O 0.1713(5) 0.0970(4) 0.4494(9)
O9 O 0.0949(4) 0.0357(3) 0.4102(6)
loop_
_geom_bond_atom_site_label_1
_geom_bond_atom_site_label_2
_geom_bond_site_symmetry_1
_geom_bond_site_symmetry_2
Cd1 O1 1_555 1_555
O1 C16 1_555 1_555
N1 C2 1_555 1_555
N2 C3 1_555 1_555
O2 C5 1_555 1_555
O3 C3 1_555 1_555
N3 Cd1 1_555 1_555
O4 C6 1_555 1_555
C1 C4 1_555 1_555
O5 C10 1_555 1_555
C2 C27 1_555 1_555
C3 C11 1_555 1_555
C4 C7 1_555 1_555
C5 N1 1_555 1_555
C6 N1 1_555 1_555
C7 C5 1_555 1_555
C8 N2 1_555 1_555
C9 C4 1_555 1_555
C10 N2 1_555 1_555
C11 C1 1_555 1_555
C12 C7 1_555 1_555
H1 C12 1_555 1_555
C13 C11 1_555 1_555
H2 C13 1_555 1_555
C14 C8 1_555 1_555
H3 C14 1_555 1_555
C15 C1 1_555 1_555
C16 C19 1_555 1_555
C17 N3 1_555 1_555
H4 C17 1_555 1_555
C18 N3 1_555 1_555
H5 C18 1_555 1_555
C19 H6 1_555 1_555
H7 C19 1_555 1_555
H8 C19 1_555 1_555
C20 C15 1_555 1_555
H9 C20 1_555 1_555
N4 C16 1_555 1_555
C21 C9 1_555 1_555
H10 C21 1_555 1_555
C22 C8 1_555 1_555
H11 C22 1_555 1_555
C23 N4 1_555 1_555
H12 C23 1_555 1_555
H13 C23 1_555 1_555
H14 C23 1_555 1_555
C24 N4 1_555 1_555
H15 C24 1_555 1_555
H16 C24 1_555 1_555
H17 C24 1_555 1_555
C25 H18 1_555 1_555
C26 H19 1_555 1_555
C27 C26 1_555 1_555
H20 C27 1_555 1_555
C28 C2 1_555 1_555
H21 C28 1_555 1_555
N5 C25 1_555 1_555
Cl1 O6 1_555 1_555
O7 Cl1 1_555 1_555
O8 Cl1 1_555 1_555
O9 Cl1 1_555 1_555
O1D Cd1 1_555 1_555
N1D C2D 1_555 1_555
N2D C3D 1_555 1_555
O2D C5D 1_555 1_555
O3D C3D 1_555 1_555
N3D Cd1 1_555 1_555
O4D C6D 1_555 1_555
C1D C4D 1_555 1_555
O5D C10D 1_555 1_555
C2D C27D 1_555 1_555
C3D C11D 1_555 1_555
C4D C7D 1_555 1_555
C5D N1D 1_555 1_555
C6D N1D 1_555 1_555
C7D C5D 1_555 1_555
C8D N2D 1_555 1_555
C9D C4D 1_555 1_555
C10D N2D 1_555 1_555
C11D C1D 1_555 1_555
C12D C7D 1_555 1_555
H1D C12D 1_555 1_555
C13D C11D 1_555 1_555
H2D C13D 1_555 1_555
C14D C8D 1_555 1_555
H3D C14D 1_555 1_555
C15D C1D 1_555 1_555
C16D O1D 1_555 1_555
C17D N3D 1_555 1_555
H4D C17D 1_555 1_555
C18D N3D 1_555 1_555
H5D C18D 1_555 1_555
C19D C16D 1_555 1_555
H6D C19D 1_555 1_555
H7D C19D 1_555 1_555
H8D C19D 1_555 1_555
C20D C15D 1_555 1_555
H9D C20D 1_555 1_555
N4D C16D 1_555 1_555
C21D C9D 1_555 1_555
H10D C21D 1_555 1_555
C22D C8D 1_555 1_555
H11D C22D 1_555 1_555
C23D N4D 1_555 1_555
H12D C23D 1_555 1_555
H13D C23D 1_555 1_555
H14D C23D 1_555 1_555
C24D N4D 1_555 1_555
H15D C24D 1_555 1_555
H16D C24D 1_555 1_555
H17D C24D 1_555 1_555
C25D H18D 1_555 1_555
C26D H19D 1_555 1_555
C27D C26D 1_555 1_555
H20D C27D 1_555 1_555
C28D C2D 1_555 1_555
H21D C28D 1_555 1_555
N5D C25D 1_555 1_555
Cd1C N5 1_555 1_555
Cd1C_2 N5D 1_555 1_555
N5C Cd1 1_555 1_555
N5G Cd1 1_555 1_555
C6 C9 1_555 1_555
C10 C15 1_555 1_555
C12 C13 1_555 1_555
C14 C17 1_555 1_555
C18 C22 1_555 1_555
C20 C21 1_555 1_555
C25 C28 1_555 1_555
C26 N5 1_555 1_555
C6D C9D 1_555 1_555
C10D C15D 1_555 1_555
C12D C13D 1_555 1_555
C14D C17D 1_555 1_555
C18D C22D 1_555 1_555
C20D C21D 1_555 1_555
C25D C28D 1_555 1_555
C26D N5D 1_555 1_555

#END
