
#######################################################################
#
#                 Cambridge Crystallographic Data Centre
#                                CCDC 
#
#######################################################################
#
# If this CIF has been generated from an entry in the Cambridge 
# Structural Database, then it will include bibliographic, chemical, 
# crystal, experimental, refinement or atomic coordinate data resulting 
# from the CCDC's data processing and validation procedures.
#
#######################################################################

data_AVAGIP
_symmetry_cell_setting           tetragonal
_symmetry_space_group_name_H-M   'I 41/a'
_symmetry_Int_Tables_number      88
_space_group_name_Hall           '-I 4ad'
loop_
_symmetry_equiv_pos_site_id
_symmetry_equiv_pos_as_xyz
1 x,y,z
2 1/2-x,-y,1/2+z
3 3/4-y,1/4+x,1/4+z
4 3/4+y,3/4-x,3/4+z
5 1/2+x,1/2+y,1/2+z
6 -x,1/2-y,z
7 1/4-y,3/4+x,3/4+z
8 1/4+y,1/4-x,1/4+z
9 -x,-y,-z
10 1/2+x,y,1/2-z
11 1/4+y,3/4-x,3/4-z
12 1/4-y,1/4+x,1/4-z
13 1/2-x,1/2-y,1/2-z
14 x,1/2+y,-z
15 3/4+y,1/4-x,1/4-z
16 3/4-y,3/4+x,3/4-z
_cell_length_a                   31.370(3)
_cell_length_b                   31.370(3)
_cell_length_c                   7.8467(13)
_cell_angle_alpha                90
_cell_angle_beta                 90
_cell_angle_gamma                90
_cell_volume                     7721.76
loop_
_atom_site_label
_atom_site_type_symbol
_atom_site_fract_x
_atom_site_fract_y
_atom_site_fract_z
_atom_site_U_iso_or_equiv
_atom_site_thermal_displace_type
Ag1 Ag 0.813897(10) 0.799467(10) -0.07647(4) 0.0465 Uani
O1 O 0.80826(14) 0.85799(12) -0.2749(5) 0.0807 Uani
H1 H 0.8242 0.8796 -0.2589 0.1210 Uiso
H2 H 0.7837 0.8630 -0.3164 0.1210 Uiso
N1 N 0.75126(10) 0.72461(11) 0.4862(5) 0.0438 Uani
N2 N 0.89850(10) 0.73337(10) 0.2317(5) 0.0434 Uani
N3 N 0.93303(11) 0.75465(11) 0.1682(5) 0.0459 Uani
N4 N 0.88425(9) 0.80214(9) 0.2315(4) 0.0347 Uani
N5 N 1.00853(11) 0.88563(10) -0.0568(4) 0.0418 Uani
N6 N 0.83095(10) 0.84852(10) 0.1408(4) 0.0387 Uani
C1 C 0.80955(13) 0.71238(13) 0.3003(6) 0.0447 Uani
H3 H 0.8228 0.6947 0.2214 0.0540 Uiso
C2 C 0.77243(13) 0.70055(13) 0.3729(6) 0.0483 Uani
H4 H 0.7609 0.6743 0.3429 0.0580 Uiso
C3 C 0.76859(12) 0.76199(13) 0.5250(5) 0.0423 Uani
H5 H 0.7542 0.7794 0.6018 0.0510 Uiso
C4 C 0.80637(12) 0.77640(13) 0.4587(5) 0.0407 Uani
H6 H 0.8173 0.8028 0.4907 0.0490 Uiso
C5 C 0.82787(12) 0.75120(12) 0.3440(5) 0.0360 Uani
C6 C 0.86923(11) 0.76181(11) 0.2695(5) 0.0358 Uani
C7 C 0.92423(12) 0.79558(12) 0.1669(5) 0.0382 Uani
C8 C 0.95247(12) 0.82765(12) 0.0938(5) 0.0374 Uani
C9 C 0.99610(13) 0.82084(13) 0.0964(5) 0.0430 Uani
H7 H 1.0073 0.7967 0.1490 0.0520 Uiso
C10 C 1.02266(12) 0.84995(13) 0.0207(6) 0.0432 Uani
H8 H 1.0519 0.8448 0.0229 0.0520 Uiso
C11 C 0.96662(13) 0.89173(13) -0.0586(6) 0.0453 Uani
H9 H 0.9562 0.9161 -0.1116 0.0550 Uiso
C12 C 0.93771(13) 0.86422(13) 0.0130(6) 0.0440 Uani
H10 H 0.9087 0.8700 0.0075 0.0530 Uiso
C13 C 0.86215(11) 0.84191(11) 0.2503(5) 0.0348 Uani
C14 C 0.87489(15) 0.87022(14) 0.3725(6) 0.0483 Uani
H11 H 0.8973 0.8641 0.4463 0.0580 Uiso
C15 C 0.85297(18) 0.90833(16) 0.3814(7) 0.0617 Uani
H12 H 0.8601 0.9285 0.4635 0.0740 Uiso
C16 C 0.82096(16) 0.91611(14) 0.2696(8) 0.0610 Uani
H13 H 0.8063 0.9419 0.2727 0.0730 Uiso
C17 C 0.81049(15) 0.88571(14) 0.1526(7) 0.0543 Uani
H14 H 0.7881 0.8911 0.0779 0.0650 Uiso
Ag1J Ag 1.049467(10) 0.936103(10) -0.17353(4) 0.0465 Uani
Ag1L Ag 0.686103(10) 0.700533(10) 0.57647(4) 0.0465 Uani
N1L N 0.74874(10) 0.77539(11) 0.0138(5) 0.0438 Uani
N5O N 0.86437(10) 0.75853(11) -0.1932(4) 0.0418 Uani
N7 N 0.7940(2) 0.1256(2) 0.0689(9) 0.0963 Uani
O2 O 0.7673(3) 0.1325(4) -0.0256(15) 0.2230 Uani
O3 O 0.7800(3) 0.1381(4) 0.2077(13) 0.2017 Uani
O4 O 0.83154(18) 0.1237(2) 0.0339(9) 0.1267 Uani
loop_
_atom_site_aniso_label
_atom_site_aniso_U_11
_atom_site_aniso_U_22
_atom_site_aniso_U_33
_atom_site_aniso_U_23
_atom_site_aniso_U_13
_atom_site_aniso_U_12
Ag1 0.0402(2) 0.0446(2) 0.0546(3) -0.00623(14) 0.00661(14) 0.00275(12)
O1 0.101(3) 0.060(2) 0.081(3) 0.012(2) -0.023(2) -0.012(2)
N1 0.0384 0.0419 0.051 0.0028 0.0022 -0.0039
N2 0.0383(18) 0.0339(16) 0.058(2) 0.0110(16) 0.0043(16) 0.0012(14)
N3 0.0381(18) 0.0367(18) 0.063(2) 0.0095(16) 0.0100(16) 0.0053(14)
N4 0.0325(16) 0.0305(15) 0.0410(16) 0.0042(13) 0.0018(13) -0.0015(12)
N5 0.0393 0.0389 0.0473 0.0026 0.0066 -0.007
N6 0.0333(17) 0.0339(17) 0.0489(18) -0.0025(14) -0.0011(14) 0.0037(13)
C1 0.039(2) 0.037(2) 0.058(2) -0.0028(19) 0.0043(19) -0.0007(17)
C2 0.039 0.035 0.071 -0.003 0.007 -0.0041
C3 0.038 0.046 0.043 -0.0046 0.0011 -0.0024
C4 0.041(2) 0.039(2) 0.042(2) -0.0008(17) -0.0018(17) -0.0059(16)
C5 0.0347(19) 0.0303(18) 0.043(2) 0.0077(15) -0.0027(16) 0.0024(15)
C6 0.0339(19) 0.0324(18) 0.041(2) 0.0051(15) -0.0012(16) 0.0007(15)
C7 0.0305(18) 0.038(2) 0.046(2) 0.0065(17) -0.0001(16) 0.0007(15)
C8 0.0333(19) 0.035(2) 0.044(2) 0.0007(16) 0.0045(16) -0.0009(16)
C9 0.036 0.041 0.052 0.0056 0.0012 0.0055
C10 0.0327 0.043 0.054 0.0037 0.0066 0.0025
C11 0.037 0.041 0.058 0.0119 0.003 0.0037
C12 0.0319 0.044 0.056 0.01 0.0017 0.0024
C13 0.0327(18) 0.0296(18) 0.042(2) 0.0031(15) 0.0065(16) -0.0025(14)
C14 0.051(2) 0.044(2) 0.050(2) -0.0037(19) -0.007(2) -0.0064(19)
C15 0.069(3) 0.045(3) 0.071(3) -0.018(2) 0.004(3) -0.006(2)
C16 0.061(3) 0.035(2) 0.087(4) -0.008(2) 0.012(3) 0.005(2)
C17 0.047(2) 0.043(2) 0.073(3) -0.001(2) -0.004(2) 0.0131(19)
Ag1J 0.0446 0.0402 0.0546 0.00661 0.00623 -0.00275
Ag1L 0.0402 0.0446 0.0546 -0.00623 0.00661 0.00275
N1L 0.0384 0.0419 0.051 0.0028 0.0022 -0.0039
N5O 0.0389 0.0393 0.0473 -0.0066 0.0026 0.007
N7 0.066(4) 0.124(5) 0.099(5) -0.009(4) -0.007(3) -0.006(3)
O2 0.122(6) 0.326(14) 0.221(10) 0.091(10) -0.011(7) 0.042(7)
O3 0.162(8) 0.275(12) 0.168(8) -0.021(8) 0.029(7) 0.005(7)
O4 0.081(3) 0.135(5) 0.164(5) -0.073(4) -0.008(3) 0.005(3)
loop_
_geom_bond_atom_site_label_1
_geom_bond_atom_site_label_2
_geom_bond_site_symmetry_1
_geom_bond_site_symmetry_2
Ag1 O1 1_555 1_555
O1 H1 1_555 1_555
H2 O1 1_555 1_555
N1 C2 1_555 1_555
N2 N3 1_555 1_555
N3 C7 1_555 1_555
N4 C6 1_555 1_555
N5 C10 1_555 1_555
N6 Ag1 1_555 1_555
C1 H3 1_555 1_555
C2 C1 1_555 1_555
H4 C2 1_555 1_555
C3 N1 1_555 1_555
H5 C3 1_555 1_555
C4 C3 1_555 1_555
H6 C4 1_555 1_555
C5 C1 1_555 1_555
C6 N2 1_555 1_555
C7 N4 1_555 1_555
C8 C7 1_555 1_555
C9 C8 1_555 1_555
H7 C9 1_555 1_555
C10 C9 1_555 1_555
H8 C10 1_555 1_555
C11 N5 1_555 1_555
H9 C11 1_555 1_555
C12 C8 1_555 1_555
H10 C12 1_555 1_555
C13 N4 1_555 1_555
C14 C13 1_555 1_555
H11 C14 1_555 1_555
C15 C14 1_555 1_555
H12 C15 1_555 1_555
C16 C15 1_555 1_555
H13 C16 1_555 1_555
C17 N6 1_555 1_555
H14 C17 1_555 1_555
N7 O2 1_555 1_555
O3 N7 1_555 1_555
O4 N7 1_555 1_555
Ag1J N5 1_555 1_555
Ag1L N1 1_555 1_555
N1L Ag1 1_555 1_555
N5O Ag1 1_555 1_555
N6 C13 1_555 1_555
C4 C5 1_555 1_555
C5 C6 1_555 1_555
C11 C12 1_555 1_555
C16 C17 1_555 1_555

#END
