
#######################################################################
#
#                 Cambridge Crystallographic Data Centre
#                                CCDC 
#
#######################################################################
#
# If this CIF has been generated from an entry in the Cambridge 
# Structural Database, then it will include bibliographic, chemical, 
# crystal, experimental, refinement or atomic coordinate data resulting 
# from the CCDC's data processing and validation procedures.
#
#######################################################################

data_AVIVUW
_symmetry_cell_setting           tetragonal
_symmetry_space_group_name_H-M   'I 41/a m d'
_symmetry_Int_Tables_number      141
_space_group_name_Hall           '-I 4bd 2'
loop_
_symmetry_equiv_pos_site_id
_symmetry_equiv_pos_as_xyz
1 x,y,z
2 1/4-y,3/4+x,1/4+z
3 1/4+y,1/4-x,3/4+z
4 1/4+y,3/4+x,1/4-z
5 1/2+x,1/2+y,1/2+z
6 3/4-y,1/4+x,3/4+z
7 3/4+y,3/4-x,1/4+z
8 3/4+y,1/4+x,3/4-z
9 1/2-x,-y,1/2+z
10 1/2-x,y,1/2-z
11 x,-y,-z
12 1/4-y,1/4-x,3/4-z
13 -x,1/2-y,z
14 -x,1/2+y,-z
15 1/2+x,1/2-y,1/2-z
16 3/4-y,3/4-x,1/4-z
17 -x,-y,-z
18 3/4+y,1/4-x,3/4-z
19 3/4-y,3/4+x,1/4-z
20 3/4-y,1/4-x,3/4+z
21 1/2-x,1/2-y,1/2-z
22 1/4+y,3/4-x,1/4-z
23 1/4-y,1/4+x,3/4-z
24 1/4-y,3/4-x,1/4+z
25 1/2+x,y,1/2-z
26 1/2+x,-y,1/2+z
27 -x,y,z
28 3/4+y,3/4+x,1/4+z
29 x,1/2+y,-z
30 x,1/2-y,z
31 1/2-x,1/2+y,1/2+z
32 1/4+y,1/4+x,3/4+z
_cell_length_a                   22.963(5)
_cell_length_b                   22.963(5)
_cell_length_c                   34.546(14)
_cell_angle_alpha                90
_cell_angle_beta                 90
_cell_angle_gamma                90
_cell_volume                     18216.1
loop_
_atom_site_label
_atom_site_type_symbol
_atom_site_fract_x
_atom_site_fract_y
_atom_site_fract_z
_atom_site_U_iso_or_equiv
_atom_site_thermal_displace_type
P2 P 0.0000 0.2500 0.8750 0.0653 Uani
F4 F 0.0694(2) 0.2500 0.87491(15) 0.0833 Uani
F5 F 0.0000 0.2500 0.9215(2) 0.0777 Uani
F4G F 0.0000 0.3194(2) 0.87509(15) 0.0833 Uani
F5G F 0.0000 0.2500 0.8285(2) 0.0777 Uani
F4Z F -0.0694(2) 0.2500 0.87491(15) 0.0833 Uani
F4Q F 0.0000 0.1806(2) 0.87509(15) 0.0833 Uani
Ag1 Ag 0.333978(13) 0.083978(13) 0.6250 0.0431 Uani
N1 N 0.23307(16) 0.08930(18) 0.63810(14) 0.0563 Uani
C1 C 0.2155(2) 0.1227(3) 0.66703(17) 0.0700 Uani
H1 H 0.2433 0.1448 0.6800 0.0840 Uiso
C2 C 0.1588(2) 0.1267(3) 0.67894(17) 0.0650 Uani
H2 H 0.1491 0.1510 0.6995 0.0780 Uiso
C3 C 0.11565(18) 0.0943(2) 0.66027(14) 0.0473 Uani
C4 C 0.1343(2) 0.0603(2) 0.62941(16) 0.0610 Uani
H3 H 0.1078 0.0385 0.6152 0.0730 Uiso
C5 C 0.1926(2) 0.0593(3) 0.62018(17) 0.0613 Uani
H4 H 0.2042 0.0356 0.5997 0.0740 Uiso
C6 C 0.05417(17) 0.09645(19) 0.67219(14) 0.0463 Uani
S1 S 0.0000 0.09255(8) 0.63801(5) 0.0500 Uani
C7 C 0.03119(17) 0.10155(18) 0.70862(13) 0.0437 Uani
C8 C 0.06515(17) 0.10040(19) 0.74531(13) 0.0433 Uani
C9 C 0.0880(3) 0.0501(2) 0.75954(19) 0.0797 Uani
H5 H 0.0846 0.0160 0.7452 0.0950 Uiso
C10 C 0.1156(3) 0.0487(2) 0.79415(18) 0.0820 Uani
H6 H 0.1300 0.0131 0.8027 0.0990 Uiso
N2 N 0.12341(16) 0.09535(16) 0.81701(11) 0.0478 Uani
C11 C 0.1021(2) 0.1454(2) 0.80312(16) 0.0563 Uani
H7 H 0.1071 0.1791 0.8177 0.0680 Uiso
C12 C 0.0733(2) 0.1495(2) 0.76832(17) 0.0617 Uani
H8 H 0.0590 0.1853 0.7601 0.0740 Uiso
N1Z N -0.23307(16) 0.08930(18) 0.63810(14) 0.0563 Uani
C1Z C -0.2155(2) 0.1227(3) 0.66703(17) 0.0700 Uani
H1Z H -0.2433 0.1448 0.6800 0.0840 Uiso
C2Z C -0.1588(2) 0.1267(3) 0.67894(17) 0.0650 Uani
H2Z H -0.1491 0.1510 0.6995 0.0780 Uiso
C3Z C -0.11565(18) 0.0943(2) 0.66027(14) 0.0473 Uani
C4Z C -0.1343(2) 0.0603(2) 0.62941(16) 0.0610 Uani
H3Z H -0.1078 0.0385 0.6152 0.0730 Uiso
C5Z C -0.1926(2) 0.0593(3) 0.62018(17) 0.0613 Uani
H4Z H -0.2042 0.0356 0.5997 0.0740 Uiso
C6Z C -0.05417(17) 0.09645(19) 0.67219(14) 0.0463 Uani
C7Z C -0.03119(17) 0.10155(18) 0.70862(13) 0.0437 Uani
C8Z C -0.06515(17) 0.10040(19) 0.74531(13) 0.0433 Uani
C9Z C -0.0880(3) 0.0501(2) 0.75954(19) 0.0797 Uani
H5Z H -0.0846 0.0160 0.7452 0.0950 Uiso
C10Z C -0.1156(3) 0.0487(2) 0.79415(18) 0.0820 Uani
H6Z H -0.1300 0.0131 0.8027 0.0990 Uiso
C12Z C -0.0733(2) 0.1495(2) 0.76832(17) 0.0617 Uani
H8Z H -0.0590 0.1853 0.7601 0.0740 Uiso
N2Z N -0.12341(16) 0.09535(16) 0.81701(11) 0.0478 Uani
C11Z C -0.1021(2) 0.1454(2) 0.80312(16) 0.0563 Uani
H7Z H -0.1071 0.1791 0.8177 0.0680 Uiso
Ag1A Ag 0.166022(13) 0.083978(13) 0.8750 0.0431 Uani
Ag1X Ag -0.166022(13) 0.083978(13) 0.8750 0.0431 Uani
Ag1Z Ag -0.333978(13) 0.083978(13) 0.6250 0.0431 Uani
N1C N 0.33930(18) -0.01693(16) 0.61190(14) 0.0563 Uani
N2B N 0.34535(16) 0.12659(16) 0.56701(11) 0.0478 Uani
N2I N 0.37659(16) 0.09535(16) 0.68299(11) 0.0478 Uani
P1 P 0.2500 0.2500 0.7500 0.0545 Uani
F1 F 0.2500 0.1819(2) 0.7500 0.1457 Uani
F2 F 0.2163(5) 0.2500 0.7890(3) 0.1623 Uani
F3 F 0.3014(4) 0.2500 0.7790(3) 0.1727 Uani
F1CA F 0.2500 0.3181(2) 0.7500 0.1457 Uani
F2T F 0.2837(5) 0.2500 0.7110(3) 0.1623 Uani
F3T F 0.1986(4) 0.2500 0.7210(3) 0.1727 Uani
loop_
_atom_site_aniso_label
_atom_site_aniso_U_11
_atom_site_aniso_U_22
_atom_site_aniso_U_33
_atom_site_aniso_U_23
_atom_site_aniso_U_13
_atom_site_aniso_U_12
P2 0.0620(14) 0.0620(14) 0.072(3) 0.000 0.000 0.000
F4 0.056(3) 0.099(4) 0.095(4) 0.000 0.000(2) 0.000
F5 0.080(4) 0.080(4) 0.073(5) 0.000 0.000 0.000
F4G 0.099 0.056 0.095 0 0 0
F5G 0.08 0.08 0.073 0 0 0
F4Z 0.056 0.099 0.095 0 0 0
F4Q 0.099 0.056 0.095 0 0 0
Ag1 0.0396(2) 0.0396(2) 0.0501(3) -0.00030(12) 0.00030(12) 0.00191(16)
N1 0.0350(19) 0.071(3) 0.063(3) -0.017(2) 0.0044(18) -0.0035(16)
C1 0.042(2) 0.088(4) 0.080(4) -0.030(3) 0.006(2) -0.016(2)
C2 0.046(2) 0.080(4) 0.069(3) -0.027(3) 0.015(2) -0.012(2)
C3 0.032(2) 0.057(2) 0.053(3) 0.000(2) 0.0025(18) -0.0017(17)
C4 0.039(2) 0.066(3) 0.078(4) -0.019(3) 0.004(2) -0.005(2)
C5 0.039(2) 0.073(3) 0.072(3) -0.026(3) 0.009(2) -0.003(2)
C6 0.032(2) 0.053(2) 0.054(3) -0.0075(19) -0.0064(18) -0.0021(17)
S1 0.0316(7) 0.0682(10) 0.0502(9) -0.0050(8) 0.000 0.000
C7 0.035(2) 0.042(2) 0.054(3) 0.0012(18) 0.0004(18) -0.0022(16)
C8 0.0298(18) 0.051(2) 0.049(2) -0.0031(19) 0.0011(16) -0.0037(17)
C9 0.107(5) 0.049(3) 0.083(4) -0.016(3) -0.026(4) 0.016(3)
C10 0.120(5) 0.049(3) 0.077(4) -0.016(3) -0.033(4) 0.023(3)
N2 0.0448(19) 0.0495(19) 0.049(2) 0.0008(16) -0.0064(17) 0.0019(15)
C11 0.065(3) 0.041(2) 0.063(3) -0.003(2) -0.016(2) 0.005(2)
C12 0.065(3) 0.047(2) 0.073(3) 0.001(2) -0.025(3) 0.012(2)
N1Z 0.035 0.071 0.063 -0.017 -0.0044 0.0035
C1Z 0.042 0.088 0.08 -0.03 -0.006 0.016
C2Z 0.046 0.08 0.069 -0.027 -0.015 0.012
C3Z 0.032 0.057 0.053 0 -0.0025 0.0017
C4Z 0.039 0.066 0.078 -0.019 -0.004 0.005
C5Z 0.039 0.073 0.072 -0.026 -0.009 0.003
C6Z 0.032 0.053 0.054 -0.0075 0.0064 0.0021
C7Z 0.035 0.042 0.054 0.0012 -0.0004 0.0022
C8Z 0.0298 0.051 0.049 -0.0031 -0.0011 0.0037
C9Z 0.107 0.049 0.083 -0.016 0.026 -0.016
C10Z 0.12 0.049 0.077 -0.016 0.033 -0.023
C12Z 0.065 0.047 0.073 0.001 0.025 -0.012
N2Z 0.0448 0.0495 0.049 0.0008 0.0064 -0.0019
C11Z 0.065 0.041 0.063 -0.003 0.016 -0.005
Ag1A 0.0396 0.0396 0.0501 0.0003 0.0003 -0.00191
Ag1X 0.0396 0.0396 0.0501 0.0003 -0.0003 0.00191
Ag1Z 0.0396 0.0396 0.0501 -0.0003 -0.0003 -0.00191
N1C 0.071 0.035 0.063 -0.0044 0.017 -0.0035
N2B 0.0495 0.0448 0.049 0.0064 0.0008 -0.0019
N2I 0.0448 0.0495 0.049 -0.0008 -0.0064 -0.0019
P1 0.0700(16) 0.0366(11) 0.0570(15) 0.000 -0.0069(12) 0.000
F1 0.284(9) 0.041(2) 0.112(5) 0.000 -0.089(6) 0.000
F2 0.221(10) 0.125(6) 0.141(7) 0.000 0.071(7) 0.000
F3 0.195(8) 0.056(3) 0.267(10) 0.000 -0.170(8) 0.000
F1CA 0.284 0.041 0.112 0 -0.089 0
F2T 0.221 0.125 0.141 0 0.071 0
F3T 0.195 0.056 0.267 0 -0.17 0
loop_
_geom_bond_atom_site_label_1
_geom_bond_atom_site_label_2
_geom_bond_site_symmetry_1
_geom_bond_site_symmetry_2
P1 F1 1_555 1_555
F2 P1 1_555 1_555
F3 P1 1_555 1_555
P2 F4 1_555 1_555
F5 P2 1_555 1_555
Ag1 N1 1_555 1_555
N1 C1 1_555 1_555
C1 H1 1_555 1_555
C2 C1 1_555 1_555
H2 C2 1_555 1_555
C3 C2 1_555 1_555
C4 C3 1_555 1_555
H3 C4 1_555 1_555
C5 N1 1_555 1_555
H4 C5 1_555 1_555
C6 C3 1_555 1_555
S1 C6 1_555 1_555
C7 C6 1_555 1_555
C8 C7 1_555 1_555
C9 C8 1_555 1_555
H5 C9 1_555 1_555
C10 C9 1_555 1_555
H6 C10 1_555 1_555
N2 C10 1_555 1_555
C11 N2 1_555 1_555
H7 C11 1_555 1_555
C12 C8 1_555 1_555
H8 C12 1_555 1_555
F1CA P1 1_555 1_555
F2T P1 1_555 1_555
F3T P1 1_555 1_555
F4G P2 1_555 1_555
F5G P2 1_555 1_555
F4Z P2 1_555 1_555
F4Q P2 1_555 1_555
N1Z C1Z 1_555 1_555
C1Z H1Z 1_555 1_555
C2Z C1Z 1_555 1_555
H2Z C2Z 1_555 1_555
C3Z C2Z 1_555 1_555
C4Z C3Z 1_555 1_555
H3Z C4Z 1_555 1_555
C5Z N1Z 1_555 1_555
H4Z C5Z 1_555 1_555
C6Z S1 1_555 1_555
C7Z C7 1_555 1_555
C8Z C7Z 1_555 1_555
C9Z C8Z 1_555 1_555
H5Z C9Z 1_555 1_555
C10Z C9Z 1_555 1_555
H6Z C10Z 1_555 1_555
C12Z C8Z 1_555 1_555
H8Z C12Z 1_555 1_555
N2Z C10Z 1_555 1_555
C11Z C12Z 1_555 1_555
H7Z C11Z 1_555 1_555
Ag1A N2 1_555 1_555
Ag1X N2Z 1_555 1_555
Ag1Z N1Z 1_555 1_555
N1C Ag1 1_555 1_555
N2B Ag1 1_555 1_555
N2I Ag1 1_555 1_555
C4 C5 1_555 1_555
C11 C12 1_555 1_555
C3Z C6Z 1_555 1_555
C4Z C5Z 1_555 1_555
C6Z C7Z 1_555 1_555
N2Z C11Z 1_555 1_555

#END
