
#######################################################################
#
#                 Cambridge Crystallographic Data Centre
#                                CCDC 
#
#######################################################################
#
# If this CIF has been generated from an entry in the Cambridge 
# Structural Database, then it will include bibliographic, chemical, 
# crystal, experimental, refinement or atomic coordinate data resulting 
# from the CCDC's data processing and validation procedures.
#
#######################################################################

data_ABECUJ
_symmetry_cell_setting           orthorhombic
_symmetry_space_group_name_H-M   'P n m a'
_symmetry_Int_Tables_number      62
_space_group_name_Hall           '-P 2ac 2n'
loop_
_symmetry_equiv_pos_site_id
_symmetry_equiv_pos_as_xyz
1 x,y,z
2 1/2-x,-y,1/2+z
3 -x,1/2+y,-z
4 1/2+x,1/2-y,1/2-z
5 -x,-y,-z
6 1/2+x,y,1/2-z
7 x,1/2-y,z
8 1/2-x,1/2+y,1/2+z
_cell_length_a                   25.1723(5)
_cell_length_b                   24.0647(5)
_cell_length_c                   15.3461(3)
_cell_angle_alpha                90
_cell_angle_beta                 90
_cell_angle_gamma                90
_cell_volume                     9296.11
loop_
_atom_site_label
_atom_site_type_symbol
_atom_site_fract_x
_atom_site_fract_y
_atom_site_fract_z
Au1 Au 0.500000 0.500000 1.000000
Co1 Co 0.29569(3) 0.750000 0.40811(6)
Co2 Co 0.42577(3) 0.750000 0.48446(6)
Co3 Co 0.32258(3) 0.750000 0.63404(6)
P1 P 0.55078(4) 0.52541(4) 0.88121(6)
F1 F 0.34704(12) 0.750000 0.5091(2)
N1 N 0.23996(16) 0.750000 0.3040(3)
N2 N 0.00883(17) 0.750000 0.0444(3)
O1 O 0.7527(6) 0.6818(9) 1.0355(6)
O2 O 0.7621(7) 0.6951(8) 0.8890(8)
O3 O 0.6624(5) 0.3076(8) 0.6668(13)
O4 O 0.5831(4) 0.3182(6) 0.5956(10)
O5 O 0.29764(19) 0.750000 0.7669(3)
C1 C 0.51198(16) 0.56795(16) 0.8068(3)
C2 C 0.4738(3) 0.6025(4) 0.8419(5)
H1 H 0.467965 0.602701 0.903107
C3 C 0.4438(3) 0.6369(4) 0.7882(5)
H2 H 0.417104 0.659928 0.812948
C4 C 0.45221(16) 0.63795(17) 0.7015(3)
C5 C 0.4892(3) 0.6008(3) 0.6632(4)
H3 H 0.494308 0.600163 0.601857
C6 C 0.5180(3) 0.5653(3) 0.7172(4)
H4 H 0.541886 0.539198 0.692405
C7 C 0.42017(17) 0.67535(18) 0.6440(3)
C8 C 0.60952(15) 0.56714(15) 0.9052(3)
C9 C 0.6240(4) 0.5770(4) 0.9888(5)
H5 H 0.604323 0.561243 1.035470
C10 C 0.6679(4) 0.6104(4) 1.0060(5)
H6 H 0.679358 0.615805 1.064441
C11 C 0.69513(16) 0.63592(16) 0.9382(3)
C12 C 0.6784(4) 0.6277(4) 0.8545(5)
H7 H 0.696616 0.645640 0.808098
C13 C 0.6350(4) 0.5934(4) 0.8360(5)
H8 H 0.623278 0.588109 0.777792
C14 C 0.74058(16) 0.67489(17) 0.9551(3)
C15 C 0.57304(15) 0.46676(14) 0.8158(3)
C16 C 0.6257(3) 0.4535(3) 0.8071(6)
H9 H 0.652041 0.475220 0.835287
C17 C 0.6404(3) 0.4076(3) 0.7564(6)
H10 H 0.676780 0.398031 0.750575
C18 C 0.60199(15) 0.37643(16) 0.7150(3)
C19 C 0.5487(2) 0.3875(3) 0.7317(6)
H11 H 0.521988 0.363810 0.708812
C20 C 0.5348(2) 0.4325(3) 0.7810(6)
H12 H 0.498285 0.440117 0.791430
C21 C 0.61717(15) 0.32901(16) 0.6561(3)
C22 C 0.21948(18) 0.70279(19) 0.2737(4)
H13 H 0.234431 0.668652 0.292849
C23 C 0.1778(2) 0.70115(19) 0.2163(4)
H14 H 0.164452 0.666266 0.197355
C24 C 0.1548(2) 0.750000 0.1853(5)
C25 C 0.1069(2) 0.750000 0.1309(4)
C26 C 0.08231(17) 0.70082(19) 0.1053(4)
H15 H 0.098597 0.666005 0.117053
C27 C 0.03373(17) 0.70301(18) 0.0624(3)
H16 H 0.017624 0.669056 0.045080
O6 O 0.4351(5) 0.6808(5) 0.5649(7)
O7 O 0.3824(5) 0.6994(6) 0.6781(8)
C22F C 0.21948(18) 0.79721(19) 0.2737(4)
H13F H 0.234431 0.831348 0.292849
C23F C 0.1778(2) 0.79885(19) 0.2163(4)
H14F H 0.164452 0.833734 0.197355
C26F C 0.08231(17) 0.79918(19) 0.1053(4)
H15F H 0.098597 0.833995 0.117053
C27F C 0.03373(17) 0.79699(18) 0.0624(3)
H16F H 0.017624 0.830944 0.045080
P1D P 0.44922(4) 0.47459(4) 0.11879(6)
O1D O 0.2473(6) 0.3182(9) -0.0355(6)
O2D O 0.2379(7) 0.3049(8) 0.1110(8)
O3D O 0.3376(5) 0.6924(8) 0.3332(13)
O4D O 0.4169(4) 0.6818(6) 0.4044(10)
C1D C 0.48802(16) 0.43205(16) 0.1932(3)
C2D C 0.5262(3) 0.3975(4) 0.1581(5)
H1D H 0.532035 0.397299 0.096893
C3D C 0.5562(3) 0.3631(4) 0.2118(5)
H2D H 0.582896 0.340072 0.187052
C4D C 0.54779(16) 0.36205(17) 0.2985(3)
C5D C 0.5108(3) 0.3992(3) 0.3368(4)
H3D H 0.505692 0.399837 0.398143
C6D C 0.4820(3) 0.4347(3) 0.2828(4)
H4D H 0.458114 0.460802 0.307595
C7D C 0.57983(17) 0.32465(18) 0.3560(3)
C8D C 0.39048(15) 0.43286(15) 0.0948(3)
C9D C 0.3760(4) 0.4230(4) 0.0112(5)
H5D H 0.395677 0.438757 -0.035470
C10D C 0.3321(4) 0.3896(4) -0.0060(5)
H6D H 0.320642 0.384195 -0.064441
C11D C 0.30487(16) 0.36408(16) 0.0618(3)
C12D C 0.3216(4) 0.3723(4) 0.1455(5)
H7D H 0.303384 0.354360 0.191902
C13D C 0.3650(4) 0.4066(4) 0.1640(5)
H8D H 0.376722 0.411891 0.222208
C14D C 0.25942(16) 0.32511(17) 0.0449(3)
C15D C 0.42696(15) 0.53324(14) 0.1842(3)
C16D C 0.3743(3) 0.5465(3) 0.1929(6)
H9D H 0.347959 0.524780 0.164713
C17D C 0.3596(3) 0.5924(3) 0.2436(6)
H10D H 0.323220 0.601969 0.249425
C18D C 0.39801(15) 0.62357(16) 0.2850(3)
C19D C 0.4513(2) 0.6125(3) 0.2683(6)
H11D H 0.478012 0.636190 0.291188
C20D C 0.4652(2) 0.5675(3) 0.2190(6)
H12D H 0.501715 0.559883 0.208570
C21D C 0.38283(15) 0.67099(16) 0.3439(3)
O6D O 0.5649(5) 0.3192(5) 0.4351(7)
O7D O 0.6176(5) 0.3006(6) 0.3219(8)
Au1_2 Au 0.500000 0.500000 0.000000
Co1A Co 0.20431(3) 0.250000 -0.09189(6)
Co1B Co 0.70431(3) 0.250000 0.59189(6)
Co1C Co 0.79569(3) 0.750000 1.09189(6)
Co2B Co 0.57423(3) 0.250000 0.51554(6)
Co2C Co -0.07423(3) 0.750000 0.01554(6)
Co3A Co 0.17742(3) 0.250000 0.13404(6)
Co3B Co 0.67742(3) 0.250000 0.36596(6)
Co3C Co 0.82258(3) 0.750000 0.86596(6)
P1_2 P 0.55078(4) 0.52541(4) -0.11879(6)
P1D_2 P 0.44922(4) 0.47459(4) 1.11879(6)
N2C N 0.50883(17) 0.750000 0.4556(3)
O1C O 0.2527(6) 0.8182(9) 0.4645(6)
O1E O 0.2527(6) 0.6818(9) 0.4645(6)
O2C O 0.2621(7) 0.8049(8) 0.6110(8)
O2E O 0.2621(7) 0.6951(8) 0.6110(8)
O3B O 0.3376(5) 0.8076(8) 0.3332(13)
O4B O 0.4169(4) 0.8182(6) 0.4044(10)
O6F O 0.4351(5) 0.8192(5) 0.5649(7)
O7F O 0.3824(5) 0.8006(6) 0.6781(8)
Ag1? Ag 0.5108(6) 0.4837(6) 1.0035(9)
O8? O 0.3712(4) 0.6814(5) 0.6658(10)
O9? O 0.4460(4) 0.7004(7) 0.5891(9)
C28? C 0.4594(8) 0.5741(9) 0.8223(13)
H17? H 0.443468 0.554802 0.869599
C29? C 0.4287(8) 0.6078(8) 0.7704(12)
H18? H 0.391612 0.610931 0.780930
C30? C 0.5042(6) 0.6326(8) 0.6945(12)
H19? H 0.522066 0.654461 0.652166
C31? C 0.5346(7) 0.5964(7) 0.7461(12)
H20? H 0.571743 0.592961 0.736278
C32? C 0.5566(6) 0.4066(7) 0.6924(13)
H21? H 0.535657 0.396172 0.643582
C33? C 0.5429(6) 0.4520(7) 0.7430(12)
H22? H 0.512591 0.473486 0.727976
C34? C 0.6189(7) 0.4393(8) 0.8327(13)
H23? H 0.640308 0.449767 0.881000
C35? C 0.6345(8) 0.3954(8) 0.7790(12)
H24? H 0.668310 0.378705 0.787273
O10? O 0.5807(4) 0.3017(6) 0.6238(11)
O11? O 0.6659(5) 0.3172(8) 0.6499(14)
C36? C 0.6921(6) 0.6085(7) 0.8623(10)
H25? H 0.719403 0.613380 0.820221
C37? C 0.6497(6) 0.5730(8) 0.8435(10)
H26? H 0.648248 0.553247 0.789887
C38? C 0.6149(6) 0.5911(7) 0.9843(10)
H27? H 0.589383 0.584004 1.028589
C39? C 0.6572(5) 0.6260(7) 1.0010(9)
H28? H 0.660239 0.643395 1.056407
O12? O 0.7728(9) 0.6818(11) 0.8944(13)
O13? O 0.7428(9) 0.6984(9) 1.0281(10)
loop_
_geom_bond_atom_site_label_1
_geom_bond_atom_site_label_2
_geom_bond_site_symmetry_1
_geom_bond_site_symmetry_2
Au1 P1 1_555 1_555
Co1 F1 1_555 1_555
Co2 F1 1_555 1_555
Co3 F1 1_555 1_555
P1 C1 1_555 1_555
N1 Co1 1_555 1_555
N2 C27 1_555 1_555
O1 C14 1_555 1_555
O2 C14 1_555 1_555
O3 C21 1_555 1_555
O4 C21 1_555 1_555
O5 Co3 1_555 1_555
C1 C2 1_555 1_555
C2 H1 1_555 1_555
C3 C2 1_555 1_555
H2 C3 1_555 1_555
C4 C3 1_555 1_555
C5 C4 1_555 1_555
H3 C5 1_555 1_555
C6 C1 1_555 1_555
H4 C6 1_555 1_555
C7 C4 1_555 1_555
C8 P1 1_555 1_555
C9 C8 1_555 1_555
H5 C9 1_555 1_555
C10 C9 1_555 1_555
H6 C10 1_555 1_555
C11 C10 1_555 1_555
C12 C11 1_555 1_555
H7 C12 1_555 1_555
C13 C8 1_555 1_555
H8 C13 1_555 1_555
C14 C11 1_555 1_555
C15 P1 1_555 1_555
C16 C15 1_555 1_555
H9 C16 1_555 1_555
C17 C16 1_555 1_555
H10 C17 1_555 1_555
C18 C17 1_555 1_555
C19 C18 1_555 1_555
H11 C19 1_555 1_555
C20 C15 1_555 1_555
H12 C20 1_555 1_555
C21 C18 1_555 1_555
C22 N1 1_555 1_555
H13 C22 1_555 1_555
C23 C22 1_555 1_555
H14 C23 1_555 1_555
C24 C23 1_555 1_555
C25 C24 1_555 1_555
C26 C25 1_555 1_555
H15 C26 1_555 1_555
C27 C26 1_555 1_555
H16 C27 1_555 1_555
O6 Co2 1_555 1_555
O7 Co3 1_555 1_555
C22F N1 1_555 1_555
H13F C22F 1_555 1_555
C23F C24 1_555 1_555
H14F C23F 1_555 1_555
C26F C25 1_555 1_555
H15F C26F 1_555 1_555
C27F N2 1_555 1_555
H16F C27F 1_555 1_555
P1D C1D 1_555 1_555
O1D C14D 1_555 1_555
O2D C14D 1_555 1_555
O3D Co1 1_555 1_555
O4D Co2 1_555 1_555
C1D C2D 1_555 1_555
C2D H1D 1_555 1_555
C3D C2D 1_555 1_555
H2D C3D 1_555 1_555
C4D C3D 1_555 1_555
C5D C4D 1_555 1_555
H3D C5D 1_555 1_555
C6D C1D 1_555 1_555
H4D C6D 1_555 1_555
C7D C4D 1_555 1_555
C8D P1D 1_555 1_555
C9D C8D 1_555 1_555
H5D C9D 1_555 1_555
C10D C9D 1_555 1_555
H6D C10D 1_555 1_555
C11D C10D 1_555 1_555
C12D C11D 1_555 1_555
H7D C12D 1_555 1_555
C13D C8D 1_555 1_555
H8D C13D 1_555 1_555
C14D C11D 1_555 1_555
C15D P1D 1_555 1_555
C16D C15D 1_555 1_555
H9D C16D 1_555 1_555
C17D C16D 1_555 1_555
H10D C17D 1_555 1_555
C18D C17D 1_555 1_555
C19D C18D 1_555 1_555
H11D C19D 1_555 1_555
C20D C15D 1_555 1_555
H12D C20D 1_555 1_555
C21D O3D 1_555 1_555
O6D C7D 1_555 1_555
O7D C7D 1_555 1_555
Au1_2 P1D 1_555 1_555
Co1A O1D 1_555 1_555
Co1B O3 1_555 1_555
Co1C O1 1_555 1_555
Co2B O4 1_555 1_555
Co2C N2 1_555 1_555
Co3A O2D 1_555 1_555
Co3B O7D 1_555 1_555
Co3C O2 1_555 1_555
P1_2 Au1_2 1_555 1_555
P1D_2 Au1 1_555 1_555
N2C Co2 1_555 1_555
O1C Co1 1_555 1_555
O1E Co1 1_555 1_555
O2C Co3 1_555 1_555
O2E Co3 1_555 1_555
O3B Co1 1_555 1_555
O4B Co2 1_555 1_555
O6F Co2 1_555 1_555
O7F Co3 1_555 1_555
C5 C6 1_555 1_555
C7 O6 1_555 1_555
C7 O7 1_555 1_555
C12 C13 1_555 1_555
C19 C20 1_555 1_555
C22F C23F 1_555 1_555
C26F C27F 1_555 1_555
O4D C21D 1_555 1_555
C5D C6D 1_555 1_555
C12D C13D 1_555 1_555
C18D C21D 1_555 1_555
C19D C20D 1_555 1_555
O6D Co2B 1_555 1_555

#END
