
#######################################################################
#
#                 Cambridge Crystallographic Data Centre
#                                CCDC 
#
#######################################################################
#
# If this CIF has been generated from an entry in the Cambridge 
# Structural Database, then it will include bibliographic, chemical, 
# crystal, experimental, refinement or atomic coordinate data resulting 
# from the CCDC's data processing and validation procedures.
#
#######################################################################

data_ABECIX
_symmetry_cell_setting           orthorhombic
_symmetry_space_group_name_H-M   'P n m a'
_symmetry_Int_Tables_number      62
_space_group_name_Hall           '-P 2ac 2n'
loop_
_symmetry_equiv_pos_site_id
_symmetry_equiv_pos_as_xyz
1 x,y,z
2 1/2-x,-y,1/2+z
3 -x,1/2+y,-z
4 1/2+x,1/2-y,1/2-z
5 -x,-y,-z
6 1/2+x,y,1/2-z
7 x,1/2-y,z
8 1/2-x,1/2+y,1/2+z
_cell_length_a                   25.2895(4)
_cell_length_b                   23.9828(5)
_cell_length_c                   15.5026(3)
_cell_angle_alpha                90
_cell_angle_beta                 90
_cell_angle_gamma                90
_cell_volume                     9402.53
loop_
_atom_site_label
_atom_site_type_symbol
_atom_site_fract_x
_atom_site_fract_y
_atom_site_fract_z
Co1 Co 0.67197(3) 0.250000 0.36581(6)
Co2 Co 0.70076(3) 0.250000 0.58853(6)
Co3 Co 0.43004(3) 0.750000 0.48265(5)
P1 P 0.44590(4) 0.47329(4) 0.11816(7)
F1 F 0.64826(12) 0.250000 0.4893(2)
O1 O 0.42112(12) 0.68965(17) 0.3903(3)
O2 O 0.33846(12) 0.68747(13) 0.3446(2)
O3 O 0.22793(15) 0.31084(16) 0.1114(2)
O4 O 0.24615(13) 0.31213(17) -0.0302(2)
O5 O 0.6970(2) 0.250000 0.2356(3)
N1 N 0.75780(17) 0.250000 0.6898(3)
N2 N 0.98750(17) 0.250000 0.9488(3)
C1 C 0.48176(15) 0.42904(16) 0.1935(3)
C2 C 0.54050(16) 0.36027(18) 0.3004(3)
C3 C 0.57299(17) 0.3237(2) 0.3577(3)
C4 C 0.42462(17) 0.53280(17) 0.1823(3)
C5 C 0.39829(16) 0.62448(17) 0.2834(3)
C6 C 0.38476(16) 0.67130(17) 0.3454(3)
C7 C 0.38568(17) 0.43338(17) 0.0971(3)
C8 C 0.3563(3) 0.4115(3) 0.1623(4)
H1 H 0.365995 0.419191 0.220296
C9 C 0.3126(3) 0.3780(3) 0.1461(4)
H2 H 0.292149 0.363897 0.192682
C10 C 0.29922(16) 0.36567(17) 0.0638(3)
C11 C 0.3288(2) 0.3871(2) -0.0021(3)
H3 H 0.319292 0.378822 -0.060016
C12 C 0.3724(2) 0.4206(2) 0.0136(3)
H4 H 0.392888 0.434532 -0.032991
C13 C 0.25325(16) 0.32618(18) 0.0460(3)
C14 C 0.77853(19) 0.2973(2) 0.7202(3)
H5 H 0.763730 0.331643 0.701306
C15 C 0.8200(2) 0.2990(2) 0.7770(4)
H6 H 0.833192 0.333908 0.796534
C16 C 0.8426(2) 0.250000 0.8059(4)
C17 C 0.8908(2) 0.250000 0.8605(4)
C18 C 0.91554(19) 0.2995(2) 0.8851(4)
H7 H 0.899857 0.334368 0.871597
C19 C 0.96296(18) 0.2975(2) 0.9293(3)
H8 H 0.978813 0.331626 0.946512
O6 O 0.6224(5) 0.3160(8) 0.3326(13)
O7 O 0.5504(4) 0.3000(8) 0.4157(10)
C20 C 0.5318(6) 0.4141(8) 0.1691(10)
H9 H 0.546628 0.428707 0.117538
C21 C 0.5609(7) 0.3776(8) 0.2197(9)
H10 H 0.594202 0.364390 0.200329
C22 C 0.4912(5) 0.3745(7) 0.3196(9)
H11 H 0.476383 0.360375 0.371460
C23 C 0.4595(6) 0.4093(7) 0.2678(9)
H12 H 0.424347 0.418639 0.283823
C24 C 0.4584(4) 0.5478(4) 0.2570(7)
H13 H 0.488119 0.525363 0.271306
C25 C 0.4469(4) 0.5941(4) 0.3054(8)
H14 H 0.469263 0.605955 0.351030
C26 C 0.3618(5) 0.6016(5) 0.2325(7)
H15 H 0.326813 0.615910 0.231660
C27 C 0.3755(5) 0.5561(5) 0.1804(7)
H16 H 0.349724 0.541114 0.142369
Ag1 Ag 0.49041(3) 0.51534(3) 0.00104(4)
C14F C 0.77853(19) 0.2027(2) 0.7202(3)
H5F H 0.763730 0.168357 0.701306
C15F C 0.8200(2) 0.2010(2) 0.7770(4)
H6F H 0.833192 0.166092 0.796534
C18F C 0.91554(19) 0.2005(2) 0.8851(4)
H7F H 0.899857 0.165632 0.871597
C19F C 0.96296(18) 0.2025(2) 0.9293(3)
H8F H 0.978813 0.168374 0.946512
P1D P 0.55410(4) 0.52671(4) -0.11816(7)
O1D O 0.57888(12) 0.31035(17) -0.3903(3)
O2D O 0.66154(12) 0.31253(13) -0.3446(2)
O3D O 0.77207(15) 0.68916(16) -0.1114(2)
O4D O 0.75385(13) 0.68787(17) 0.0302(2)
C1D C 0.51824(15) 0.57096(16) -0.1935(3)
C2D C 0.45950(16) 0.63973(18) -0.3004(3)
C3D C 0.42701(17) 0.6763(2) -0.3577(3)
C4D C 0.57538(17) 0.46720(17) -0.1823(3)
C5D C 0.60171(16) 0.37552(17) -0.2834(3)
C6D C 0.61524(16) 0.32870(17) -0.3454(3)
C7D C 0.61432(17) 0.56662(17) -0.0971(3)
C8D C 0.6437(3) 0.5885(3) -0.1623(4)
H1D H 0.634005 0.580809 -0.220296
C9D C 0.6874(3) 0.6220(3) -0.1461(4)
H2D H 0.707851 0.636103 -0.192682
C10D C 0.70078(16) 0.63433(17) -0.0638(3)
C11D C 0.6712(2) 0.6129(2) 0.0021(3)
H3D H 0.680708 0.621178 0.060016
C12D C 0.6276(2) 0.5794(2) -0.0136(3)
H4D H 0.607112 0.565468 0.032991
C13D C 0.74675(16) 0.67382(18) -0.0460(3)
O6D O 0.3776(5) 0.6840(8) -0.3326(13)
O7D O 0.4496(4) 0.7000(8) -0.4157(10)
C20D C 0.4682(6) 0.5859(8) -0.1691(10)
H9D H 0.453372 0.571293 -0.117538
C21D C 0.4391(7) 0.6224(8) -0.2197(9)
H10D H 0.405798 0.635610 -0.200329
C22D C 0.5088(5) 0.6255(7) -0.3196(9)
H11D H 0.523617 0.639625 -0.371460
C23D C 0.5405(6) 0.5907(7) -0.2678(9)
H12D H 0.575653 0.581361 -0.283823
C24D C 0.5416(4) 0.4522(4) -0.2570(7)
H13D H 0.511881 0.474637 -0.271306
C25D C 0.5531(4) 0.4059(4) -0.3054(8)
H14D H 0.530737 0.394045 -0.351030
C26D C 0.6382(5) 0.3984(5) -0.2325(7)
H15D H 0.673187 0.384090 -0.231660
C27D C 0.6245(5) 0.4439(5) -0.1804(7)
H16D H 0.650276 0.458886 -0.142369
Ag1D Ag 0.50959(3) 0.48466(3) -0.00104(4)
Co1A Co 0.82803(3) 0.750000 -0.13419(6)
Co1B Co 0.32803(3) 0.750000 -0.36581(6)
Co1C Co 0.17197(3) 0.250000 0.13419(6)
Co2_2 Co 0.70076(3) 0.250000 -0.41147(6)
Co2A Co 0.79924(3) 0.750000 0.08853(6)
Co2B Co 0.29924(3) 0.750000 0.41147(6)
Co2C Co 0.20076(3) 0.250000 -0.08853(6)
Co3_2 Co 0.43004(3) 0.750000 -0.51735(5)
Co3A Co 1.06996(3) 0.250000 0.98265(5)
Co3B Co 0.56996(3) 0.250000 -0.48265(5)
Co3B_2 Co 0.56996(3) 0.250000 0.51735(5)
F1B F 0.35174(12) 0.750000 0.5107(2)
O1F O 0.42112(12) 0.81035(17) 0.3903(3)
O2B O 0.66154(12) 0.18747(13) 0.6554(2)
O2D_2 O 0.66154(12) 0.31253(13) 0.6554(2)
O3C O 0.72793(15) 0.18916(16) 0.3886(2)
O3E O 0.72793(15) 0.31084(16) 0.3886(2)
O4C O 0.74615(13) 0.18787(17) 0.5302(2)
O4E O 0.74615(13) 0.31213(17) 0.5302(2)
N2A N 0.51250(17) 0.750000 0.4488(3)
O6F O 0.6224(5) 0.1840(8) 0.3326(13)
O7B O 0.4496(4) 0.8000(8) 0.5843(10)
O7D_2 O 0.4496(4) 0.7000(8) 0.5843(10)
O8? O 0.6113(8) 0.3011(8) 0.3278(12)
O9? O 0.5572(5) 0.3220(8) 0.4403(8)
C28? C 0.5135(3) 0.3881(3) 0.1608(5)
H17? H 0.515293 0.383262 0.100082
C29? C 0.5430(3) 0.3534(3) 0.2134(5)
H18? H 0.564704 0.325162 0.189069
C30? C 0.5085(3) 0.4016(3) 0.3360(5)
H19? H 0.506768 0.406207 0.396818
C31? C 0.4787(3) 0.4366(3) 0.2818(4)
H20? H 0.456826 0.464910 0.305419
C32? C 0.4638(3) 0.5684(3) 0.2090(5)
H21? H 0.499678 0.562045 0.193446
C33? C 0.4499(3) 0.6140(3) 0.2591(5)
H22? H 0.476769 0.639039 0.277310
C34? C 0.3597(5) 0.5873(4) 0.2546(6)
H23? H 0.323741 0.593367 0.269731
C35? C 0.3732(5) 0.5415(4) 0.2040(5)
H24? H 0.346584 0.516437 0.184676
loop_
_geom_bond_atom_site_label_1
_geom_bond_atom_site_label_2
_geom_bond_site_symmetry_1
_geom_bond_site_symmetry_2
Co1 F1 1_555 1_555
Co2 F1 1_555 1_555
Co3 O1 1_555 1_555
P1 C1 1_555 1_555
F1 Co3B_2 1_555 1_555
O1 C6 1_555 1_555
O2 C6 1_555 1_555
O3 C13 1_555 1_555
O4 C13 1_555 1_555
O5 Co1 1_555 1_555
N1 Co2 1_555 1_555
N2 C19 1_555 1_555
C1 C20 1_555 1_555
C2 C3 1_555 1_555
C3 O6 1_555 1_555
C4 P1 1_555 1_555
C5 C6 1_555 1_555
C7 P1 1_555 1_555
C8 C7 1_555 1_555
H1 C8 1_555 1_555
C9 C8 1_555 1_555
H2 C9 1_555 1_555
C10 C9 1_555 1_555
C11 C10 1_555 1_555
H3 C11 1_555 1_555
C12 C7 1_555 1_555
H4 C12 1_555 1_555
C13 C10 1_555 1_555
C14 N1 1_555 1_555
H5 C14 1_555 1_555
C15 C14 1_555 1_555
H6 C15 1_555 1_555
C16 C15 1_555 1_555
C17 C16 1_555 1_555
C18 C17 1_555 1_555
H7 C18 1_555 1_555
C19 C18 1_555 1_555
H8 C19 1_555 1_555
O6 Co1 1_555 1_555
O7 C3 1_555 1_555
C20 H9 1_555 1_555
C21 C2 1_555 1_555
H10 C21 1_555 1_555
C22 C2 1_555 1_555
H11 C22 1_555 1_555
C23 C1 1_555 1_555
H12 C23 1_555 1_555
C24 C4 1_555 1_555
H13 C24 1_555 1_555
C25 C5 1_555 1_555
H14 C25 1_555 1_555
C26 C5 1_555 1_555
H15 C26 1_555 1_555
C27 C4 1_555 1_555
H16 C27 1_555 1_555
Ag1 P1 1_555 1_555
C14F N1 1_555 1_555
H5F C14F 1_555 1_555
C15F C16 1_555 1_555
H6F C15F 1_555 1_555
C18F C17 1_555 1_555
H7F C18F 1_555 1_555
C19F N2 1_555 1_555
H8F C19F 1_555 1_555
P1D Ag1 1_555 1_555
O1D C6D 1_555 1_555
O2D C6D 1_555 1_555
O3D C13D 1_555 1_555
O4D C13D 1_555 1_555
C1D P1D 1_555 1_555
C2D C3D 1_555 1_555
C3D O6D 1_555 1_555
C4D P1D 1_555 1_555
C5D C6D 1_555 1_555
C7D P1D 1_555 1_555
C8D C7D 1_555 1_555
H1D C8D 1_555 1_555
C9D C8D 1_555 1_555
H2D C9D 1_555 1_555
C10D C9D 1_555 1_555
C11D C10D 1_555 1_555
H3D C11D 1_555 1_555
C12D C7D 1_555 1_555
H4D C12D 1_555 1_555
C13D C10D 1_555 1_555
O6D Co1B 1_555 1_555
O7D C3D 1_555 1_555
C20D C1D 1_555 1_555
H9D C20D 1_555 1_555
C21D C2D 1_555 1_555
H10D C21D 1_555 1_555
C22D C2D 1_555 1_555
H11D C22D 1_555 1_555
C23D C1D 1_555 1_555
H12D C23D 1_555 1_555
C24D C4D 1_555 1_555
H13D C24D 1_555 1_555
C25D C5D 1_555 1_555
H14D C25D 1_555 1_555
C26D C5D 1_555 1_555
H15D C26D 1_555 1_555
C27D C4D 1_555 1_555
H16D C27D 1_555 1_555
Ag1D P1 1_555 1_555
Co1A O3D 1_555 1_555
Co1C O3 1_555 1_555
Co2_2 O2D 1_555 1_555
Co2A O4D 1_555 1_555
Co2B O2 1_555 1_555
Co2C O4 1_555 1_555
Co3_2 O7D 1_555 1_555
Co3A N2 1_555 1_555
Co3B O1D 1_555 1_555
Co3B_2 O7 1_555 1_555
F1B Co3 1_555 1_555
O1F Co3 1_555 1_555
O2B Co2 1_555 1_555
O2D_2 Co2 1_555 1_555
O3C Co1 1_555 1_555
O3E Co1 1_555 1_555
O4C Co2 1_555 1_555
O4E Co2 1_555 1_555
N2A Co3 1_555 1_555
O6F Co1 1_555 1_555
O7B Co3 1_555 1_555
O7D_2 Co3 1_555 1_555
C11 C12 1_555 1_555
C20 C21 1_555 1_555
C22 C23 1_555 1_555
C24 C25 1_555 1_555
C26 C27 1_555 1_555
C14F C15F 1_555 1_555
C18F C19F 1_555 1_555
P1D Ag1D 1_555 1_555
C11D C12D 1_555 1_555
C20D C21D 1_555 1_555
C22D C23D 1_555 1_555
C24D C25D 1_555 1_555
C26D C27D 1_555 1_555
Co2B F1B 1_555 1_555

#END
