
#######################################################################
#
#                 Cambridge Crystallographic Data Centre
#                                CCDC 
#
#######################################################################
#
# If this CIF has been generated from an entry in the Cambridge 
# Structural Database, then it will include bibliographic, chemical, 
# crystal, experimental, refinement or atomic coordinate data resulting 
# from the CCDC's data processing and validation procedures.
#
#######################################################################

data_ABECOD
_symmetry_cell_setting           orthorhombic
_symmetry_space_group_name_H-M   'P n m a'
_symmetry_Int_Tables_number      62
_space_group_name_Hall           '-P 2ac 2n'
loop_
_symmetry_equiv_pos_site_id
_symmetry_equiv_pos_as_xyz
1 x,y,z
2 1/2-x,-y,1/2+z
3 -x,1/2+y,-z
4 1/2+x,1/2-y,1/2-z
5 -x,-y,-z
6 1/2+x,y,1/2-z
7 x,1/2-y,z
8 1/2-x,1/2+y,1/2+z
_cell_length_a                   25.2761(7)
_cell_length_b                   23.8761(7)
_cell_length_c                   15.4134(5)
_cell_angle_alpha                90
_cell_angle_beta                 90
_cell_angle_gamma                90
_cell_volume                     9301.91
loop_
_atom_site_label
_atom_site_type_symbol
_atom_site_fract_x
_atom_site_fract_y
_atom_site_fract_z
Ag1 Ag 0.99009(6) 0.48288(11) 0.50068(14)
Co1 Co 0.57223(4) 0.750000 0.48305(7)
Co2 Co 0.70214(4) 0.750000 0.40768(7)
Co3 Co 0.67556(4) 0.750000 0.63304(7)
P1 P 0.94964(6) 0.52571(5) 0.61271(9)
F1 F 0.65021(16) 0.750000 0.5091(3)
O1 O 0.73125(19) 0.6891(2) 0.6084(3)
O2 O 0.74836(15) 0.68780(19) 0.4648(3)
O3 O 0.7020(2) 0.750000 0.7635(4)
N1 N 0.7586(2) 0.750000 0.3044(4)
N2 N 0.9895(2) 0.750000 0.0473(4)
C1 C 0.8848(2) 0.3289(2) 0.8433(4)
C2 C 0.8895(2) 0.5667(2) 0.5922(4)
C3 C 0.8606(3) 0.5875(4) 0.6582(4)
H1 H 0.869989 0.578973 0.716408
C4 C 0.8164(3) 0.6221(3) 0.6415(4)
H2 H 0.797081 0.637402 0.688703
C5 C 0.8010(2) 0.6338(2) 0.5589(4)
C6 C 0.8307(3) 0.6118(3) 0.4917(4)
H3 H 0.820858 0.619927 0.433527
C7 C 0.8753(2) 0.5777(3) 0.5073(4)
H4 H 0.895188 0.562637 0.460455
C8 C 0.7563(2) 0.6735(2) 0.5416(4)
C9 C 0.9852(2) 0.5706(2) 0.6889(3)
C10 C 1.0440(2) 0.6393(2) 0.7990(4)
C11 C 1.0775(2) 0.6761(3) 0.8568(4)
C12 C 0.7790(2) 0.7017(2) 0.2743(4)
H5 H 0.764304 0.667322 0.293723
C13 C 0.8199(2) 0.7005(3) 0.2172(4)
H6 H 0.832989 0.665601 0.196909
C14 C 0.8427(3) 0.750000 0.1882(5)
C15 C 0.8917(3) 0.750000 0.1329(5)
C16 C 0.9169(2) 0.7994(2) 0.1096(5)
H7 H 0.900920 0.834390 0.122765
C17 C 0.9641(2) 0.7978(3) 0.0679(4)
H8 H 0.980248 0.832349 0.052418
O4 O 0.9185(4) 0.3181(6) 0.9047(11)
O5 O 0.8389(5) 0.3094(11) 0.8350(16)
C18 C 0.9270(8) 0.4649(7) 0.6685(8)
C19 C 0.9652(4) 0.4275(4) 0.6972(6)
H9 H 1.000884 0.431991 0.679288
C20 C 0.9516(4) 0.3832(4) 0.7522(6)
H10 H 0.977396 0.357208 0.771934
C21 C 0.9002(12) 0.3789(8) 0.7762(9)
C22 C 0.8632(7) 0.4145(5) 0.7474(8)
H11 H 0.827205 0.409792 0.763667
C23 C 0.8782(8) 0.4595(5) 0.6922(8)
H12 H 0.852448 0.485582 0.672810
C24 C 1.0127(4) 0.6166(4) 0.6591(7)
H13 H 1.011521 0.624902 0.598891
C25 C 1.0409(4) 0.6500(5) 0.7112(7)
H14 H 1.058932 0.681421 0.687486
C26 C 1.0164(4) 0.5931(5) 0.8319(7)
H15 H 1.017489 0.585020 0.892244
C27 C 0.9878(4) 0.5595(5) 0.7768(7)
H16 H 0.969467 0.527968 0.799525
O6 O 0.9086(4) 0.4415(5) 0.4587(8)
N3 N 0.8494(4) 0.4146(6) 0.3604(9)
C28 C 0.8852(5) 0.4495(6) 0.3895(10)
H17 H 0.893493 0.481849 0.356333
C29 C 0.8362(10) 0.3641(8) 0.4110(14)
H18 H 0.808932 0.342655 0.380477
H19 H 0.867971 0.340976 0.417892
H20 H 0.823022 0.375197 0.468257
C30 C 0.8197(7) 0.4202(9) 0.2799(11)
H21 H 0.795525 0.388342 0.273748
H22 H 0.799325 0.455083 0.281019
H23 H 0.844279 0.420843 0.230697
O7 O 1.0606(4) 0.6765(6) 0.9373(6)
O8 O 1.1176(11) 0.6975(13) 0.830(3)
O9 O 1.0064(6) 0.3951(5) 0.5669(8)
C12F C 0.7790(2) 0.7983(2) 0.2743(4)
H5F H 0.764304 0.832678 0.293723
C13F C 0.8199(2) 0.7995(3) 0.2172(4)
H6F H 0.832989 0.834399 0.196909
C16F C 0.9169(2) 0.7006(2) 0.1096(5)
H7F H 0.900920 0.665610 0.122765
C17F C 0.9641(2) 0.7022(3) 0.0679(4)
H8F H 0.980248 0.667651 0.052418
Ag1D Ag 1.00991(6) 0.51712(11) 0.49932(14)
P1D P 1.05036(6) 0.47429(5) 0.38729(9)
O1D O 1.26875(19) 0.3109(2) 0.3916(3)
O2D O 1.25164(15) 0.31220(19) 0.5352(3)
C1D C 1.1152(2) 0.6711(2) 0.1567(4)
C2D C 1.1105(2) 0.4333(2) 0.4078(4)
C3D C 1.1394(3) 0.4125(4) 0.3418(4)
H1D H 1.130011 0.421027 0.283592
C4D C 1.1836(3) 0.3779(3) 0.3585(4)
H2D H 1.202919 0.362598 0.311297
C5D C 1.1990(2) 0.3662(2) 0.4411(4)
C6D C 1.1693(3) 0.3882(3) 0.5083(4)
H3D H 1.179142 0.380073 0.566473
C7D C 1.1247(2) 0.4223(3) 0.4927(4)
H4D H 1.104812 0.437363 0.539545
C8D C 1.2437(2) 0.3265(2) 0.4584(4)
C9D C 1.0148(2) 0.4294(2) 0.3111(3)
C10D C 0.9560(2) 0.3607(2) 0.2010(4)
C11D C 0.9225(2) 0.3239(3) 0.1432(4)
O4D O 1.0815(4) 0.6819(6) 0.0953(11)
O5D O 1.1611(5) 0.6906(11) 0.1650(16)
C18D C 1.0730(8) 0.5351(7) 0.3315(8)
C19D C 1.0348(4) 0.5725(4) 0.3028(6)
H9D H 0.999116 0.568009 0.320712
C20D C 1.0484(4) 0.6168(4) 0.2478(6)
H10D H 1.022604 0.642792 0.228066
C21D C 1.0998(12) 0.6211(8) 0.2238(9)
C22D C 1.1368(7) 0.5855(5) 0.2526(8)
H11D H 1.172795 0.590208 0.236333
C23D C 1.1218(8) 0.5405(5) 0.3078(8)
H12D H 1.147552 0.514418 0.327190
C24D C 0.9873(4) 0.3834(4) 0.3409(7)
H13D H 0.988479 0.375098 0.401109
C25D C 0.9591(4) 0.3500(5) 0.2888(7)
H14D H 0.941068 0.318579 0.312514
C26D C 0.9836(4) 0.4069(5) 0.1681(7)
H15D H 0.982511 0.414980 0.107756
C27D C 1.0122(4) 0.4405(5) 0.2232(7)
H16D H 1.030533 0.472032 0.200475
O6D O 1.0914(4) 0.5585(5) 0.5413(8)
N3D N 1.1506(4) 0.5854(6) 0.6396(9)
C28D C 1.1148(5) 0.5505(6) 0.6105(10)
H17D H 1.106507 0.518151 0.643667
C29D C 1.1638(10) 0.6359(8) 0.5890(14)
H18D H 1.191068 0.657345 0.619523
H19D H 1.132029 0.659024 0.582108
H20D H 1.176978 0.624803 0.531743
C30D C 1.1803(7) 0.5798(9) 0.7201(11)
H21D H 1.204475 0.611658 0.726252
H22D H 1.200675 0.544917 0.718981
H23D H 1.155721 0.579157 0.769303
O7D O 0.9394(4) 0.3235(6) 0.0627(6)
O8D O 0.8824(11) 0.3025(13) 0.170(3)
O9D O 0.9936(6) 0.6049(5) 0.4331(8)
Co1A Co 0.92777(4) 0.250000 -0.01695(7)
Co1A_2 Co 0.92777(4) 0.250000 0.98305(7)
Co1C Co 1.07223(4) 0.750000 0.01695(7)
Co1C_2 Co 1.07223(4) 0.750000 1.01695(7)
Co2A Co 0.79786(4) 0.250000 0.90768(7)
Co2B Co 1.29786(4) 0.250000 0.59232(7)
Co2C Co 1.20214(4) 0.750000 0.09232(7)
Co3A Co 0.82444(4) 0.250000 0.13304(7)
Co3B Co 1.32444(4) 0.250000 0.36696(7)
Co3C Co 1.17556(4) 0.750000 0.86696(7)
O1F O 0.73125(19) 0.8109(2) 0.6084(3)
O2F O 0.74836(15) 0.81220(19) 0.4648(3)
N2C N 0.4895(2) 0.750000 0.4527(4)
O4A O 0.5815(4) 0.6819(6) 0.4047(11)
O4G O 0.5815(4) 0.8181(6) 0.4047(11)
O5A O 0.6611(5) 0.6906(11) 0.3350(16)
O5G O 0.6611(5) 0.8094(11) 0.3350(16)
O7C O 0.5606(4) 0.8235(6) 0.5627(6)
O7E O 0.5606(4) 0.6765(6) 0.5627(6)
O8C O 0.6176(11) 0.8025(13) 0.670(3)
O8E O 0.6176(11) 0.6975(13) 0.670(3)
Cu1? Cu 0.9757(5) 0.4747(7) 0.5084(10)
O10? O 0.9222(4) 0.3030(6) 0.8746(11)
O11? O 0.8361(6) 0.3183(13) 0.849(2)
C31? C 0.9279(8) 0.4714(7) 0.6918(9)
C32? C 0.9594(4) 0.4510(4) 0.7529(7)
H24? H 0.992521 0.468830 0.762231
C33? C 0.9464(4) 0.4046(5) 0.8047(8)
H25? H 0.969218 0.393390 0.850491
C34? C 0.8967(12) 0.3731(9) 0.7871(10)
C35? C 0.8624(6) 0.3975(5) 0.7313(9)
H26? H 0.827428 0.383148 0.727565
C36? C 0.8764(7) 0.4434(5) 0.6782(10)
H27? H 0.852914 0.456123 0.634231
C37? C 1.0332(6) 0.5891(6) 0.6618(10)
H28? H 1.046202 0.578615 0.606248
C38? C 1.0629(7) 0.6228(6) 0.7140(9)
H29? H 1.096385 0.635586 0.694430
C39? C 0.9962(5) 0.6198(6) 0.8228(9)
H30? H 0.982508 0.629856 0.878036
C40? C 0.9664(6) 0.5858(6) 0.7694(8)
H31? H 0.932745 0.572797 0.788225
O12? O 1.0529(4) 0.7026(6) 0.9120(8)
O13? O 1.1222(12) 0.6830(16) 0.829(4)
C41? C 0.927(2) 0.489(3) 0.529(4)
loop_
_geom_bond_atom_site_label_1
_geom_bond_atom_site_label_2
_geom_bond_site_symmetry_1
_geom_bond_site_symmetry_2
Ag1 P1 1_555 1_555
Co1 F1 1_555 1_555
Co2 F1 1_555 1_555
Co3 F1 1_555 1_555
P1 C2 1_555 1_555
O1 Co3 1_555 1_555
O2 Co2 1_555 1_555
O3 Co3 1_555 1_555
N1 Co2 1_555 1_555
N2 C17 1_555 1_555
C1 O4 1_555 1_555
C2 C3 1_555 1_555
C3 H1 1_555 1_555
C4 C3 1_555 1_555
H2 C4 1_555 1_555
C5 C4 1_555 1_555
C6 C5 1_555 1_555
H3 C6 1_555 1_555
C7 C2 1_555 1_555
H4 C7 1_555 1_555
C8 O1 1_555 1_555
C9 P1 1_555 1_555
C10 C11 1_555 1_555
C11 O7 1_555 1_555
C12 N1 1_555 1_555
H5 C12 1_555 1_555
C13 C12 1_555 1_555
H6 C13 1_555 1_555
C14 C13 1_555 1_555
C15 C14 1_555 1_555
C16 C15 1_555 1_555
H7 C16 1_555 1_555
C17 C16 1_555 1_555
H8 C17 1_555 1_555
O4 Co1A_2 1_555 1_555
O5 C1 1_555 1_555
C18 P1 1_555 1_555
C19 C18 1_555 1_555
H9 C19 1_555 1_555
C20 C19 1_555 1_555
H10 C20 1_555 1_555
C21 C1 1_555 1_555
C22 C21 1_555 1_555
H11 C22 1_555 1_555
C23 C18 1_555 1_555
H12 C23 1_555 1_555
C24 C9 1_555 1_555
H13 C24 1_555 1_555
C25 C10 1_555 1_555
H14 C25 1_555 1_555
C26 C10 1_555 1_555
H15 C26 1_555 1_555
C27 C9 1_555 1_555
H16 C27 1_555 1_555
O6 Ag1 1_555 1_555
N3 C28 1_555 1_555
C28 O6 1_555 1_555
H17 C28 1_555 1_555
C29 N3 1_555 1_555
H18 C29 1_555 1_555
H19 C29 1_555 1_555
H20 C29 1_555 1_555
C30 N3 1_555 1_555
H21 C30 1_555 1_555
H22 C30 1_555 1_555
H23 C30 1_555 1_555
O7 Co1C_2 1_555 1_555
O8 C11 1_555 1_555
O9 Ag1 1_555 1_555
C12F N1 1_555 1_555
H5F C12F 1_555 1_555
C13F C14 1_555 1_555
H6F C13F 1_555 1_555
C16F C15 1_555 1_555
H7F C16F 1_555 1_555
C17F N2 1_555 1_555
H8F C17F 1_555 1_555
Ag1D Ag1 1_555 1_555
P1D Ag1 1_555 1_555
O1D C8D 1_555 1_555
O2D C8D 1_555 1_555
C1D O4D 1_555 1_555
C2D P1D 1_555 1_555
C3D C2D 1_555 1_555
H1D C3D 1_555 1_555
C4D C3D 1_555 1_555
H2D C4D 1_555 1_555
C5D C4D 1_555 1_555
C6D C5D 1_555 1_555
H3D C6D 1_555 1_555
C7D C2D 1_555 1_555
H4D C7D 1_555 1_555
C8D C5D 1_555 1_555
C9D P1D 1_555 1_555
C10D C11D 1_555 1_555
C11D O7D 1_555 1_555
O4D Co1C 1_555 1_555
O5D C1D 1_555 1_555
C18D P1D 1_555 1_555
C19D C18D 1_555 1_555
H9D C19D 1_555 1_555
C20D C19D 1_555 1_555
H10D C20D 1_555 1_555
C21D C1D 1_555 1_555
C22D C21D 1_555 1_555
H11D C22D 1_555 1_555
C23D C18D 1_555 1_555
H12D C23D 1_555 1_555
C24D C9D 1_555 1_555
H13D C24D 1_555 1_555
C25D C10D 1_555 1_555
H14D C25D 1_555 1_555
C26D C10D 1_555 1_555
H15D C26D 1_555 1_555
C27D C9D 1_555 1_555
H16D C27D 1_555 1_555
O6D Ag1D 1_555 1_555
N3D C28D 1_555 1_555
C28D O6D 1_555 1_555
H17D C28D 1_555 1_555
C29D N3D 1_555 1_555
H18D C29D 1_555 1_555
H19D C29D 1_555 1_555
H20D C29D 1_555 1_555
C30D N3D 1_555 1_555
H21D C30D 1_555 1_555
H22D C30D 1_555 1_555
H23D C30D 1_555 1_555
O7D Co1A 1_555 1_555
O8D C11D 1_555 1_555
O9D Ag1D 1_555 1_555
Co1C N2 1_555 1_555
Co2A O5 1_555 1_555
Co2B O2D 1_555 1_555
Co2C O5D 1_555 1_555
Co3A O8D 1_555 1_555
Co3B O1D 1_555 1_555
Co3C O8 1_555 1_555
O1F Co3 1_555 1_555
O2F Co2 1_555 1_555
N2C Co1 1_555 1_555
O4A Co1 1_555 1_555
O4G Co1 1_555 1_555
O5A Co2 1_555 1_555
O5G Co2 1_555 1_555
O7C Co1 1_555 1_555
O7E Co1 1_555 1_555
O8C Co3 1_555 1_555
O8E Co3 1_555 1_555
P1 Ag1D 1_555 1_555
O2 C8 1_555 1_555
C5 C8 1_555 1_555
C6 C7 1_555 1_555
C20 C21 1_555 1_555
C22 C23 1_555 1_555
C24 C25 1_555 1_555
C26 C27 1_555 1_555
C12F C13F 1_555 1_555
C16F C17F 1_555 1_555
Ag1D P1D 1_555 1_555
C6D C7D 1_555 1_555
C20D C21D 1_555 1_555
C22D C23D 1_555 1_555
C24D C25D 1_555 1_555
C26D C27D 1_555 1_555

#END
