
#######################################################################
#
#                 Cambridge Crystallographic Data Centre
#                                CCDC 
#
#######################################################################
#
# If this CIF has been generated from an entry in the Cambridge 
# Structural Database, then it will include bibliographic, chemical, 
# crystal, experimental, refinement or atomic coordinate data resulting 
# from the CCDC's data processing and validation procedures.
#
#######################################################################

data_ABEDIY
_symmetry_cell_setting           orthorhombic
_symmetry_space_group_name_H-M   'P n m a'
_symmetry_Int_Tables_number      62
_space_group_name_Hall           '-P 2ac 2n'
loop_
_symmetry_equiv_pos_site_id
_symmetry_equiv_pos_as_xyz
1 x,y,z
2 1/2-x,-y,1/2+z
3 -x,1/2+y,-z
4 1/2+x,1/2-y,1/2-z
5 -x,-y,-z
6 1/2+x,y,1/2-z
7 x,1/2-y,z
8 1/2-x,1/2+y,1/2+z
_cell_length_a                   25.232(2)
_cell_length_b                   23.862(2)
_cell_length_c                   15.3537(14)
_cell_angle_alpha                90
_cell_angle_beta                 90
_cell_angle_gamma                90
_cell_volume                     9244.25
loop_
_atom_site_label
_atom_site_type_symbol
_atom_site_fract_x
_atom_site_fract_y
_atom_site_fract_z
Co1 Co 0.29726(8) 0.250000 0.59268(12)
Co2 Co 0.32310(9) 0.250000 0.36711(14)
Co3 Co 0.42732(8) 0.250000 0.51669(13)
P1 P 0.45189(11) 0.52489(9) 0.89016(15)
F1 F 0.3479(3) 0.250000 0.4959(4)
O1 O 0.2493(3) 0.6878(3) 1.0359(4)
O2 O 0.2962(5) 0.250000 0.2372(7)
N1 N 0.0095(4) 0.250000 0.9587(6)
O3 O 0.2316(3) 0.6877(4) 0.8928(5)
O4 O 0.621(2) 0.693(3) 0.673(5)
N2 N 0.2420(5) 0.250000 0.6994(6)
C1 C 0.3044(3) 0.6344(3) 0.9403(6)
C2 C 0.3908(4) 0.5654(3) 0.9147(6)
C3 C 0.1090(6) 0.250000 0.8699(8)
C4 C 0.1565(6) 0.250000 0.8153(8)
C5 C 0.2566(4) 0.6727(3) 0.9623(6)
C6 C 0.4866(4) 0.5695(4) 0.8132(6)
C7 C 0.5460(3) 0.6395(4) 0.7033(6)
C8 C 0.3757(4) 0.5771(4) 0.9973(6)
H1 H 0.394102 0.562183 1.044368
C9 C 0.3976(4) 0.3777(3) 0.7161(5)
O5 O 0.5621(5) 0.6784(5) 0.5624(6)
C10 C 0.5773(4) 0.6759(4) 0.6442(6)
C11 C 0.3845(4) 0.3278(4) 0.6551(6)
C12 C 0.3328(4) 0.6115(4) 1.0106(6)
H2 H 0.322313 0.619878 1.067270
C13 C 0.2197(5) 0.2026(4) 0.7296(6)
H3 H 0.232783 0.168664 0.708987
C14 C 0.4278(4) 0.4666(4) 0.8274(7)
C15 C 0.0355(5) 0.2978(5) 0.9373(9)
H4 H 0.019683 0.331949 0.950679
C16 C 0.1793(5) 0.2007(4) 0.7882(8)
H5 H 0.167296 0.166589 0.809718
C17 C 0.3195(5) 0.6221(4) 0.8577(6)
H6 H 0.301051 0.636690 0.810466
C18 C 0.3632(5) 0.5873(4) 0.8448(6)
H7 H 0.373819 0.578662 0.788398
C19 C 0.0838(4) 0.2983(5) 0.8973(10)
H8 H 0.100459 0.332520 0.888026
C20 C 0.4915(6) 0.5568(7) 0.7285(10)
H9 H 0.474461 0.524651 0.708790
C21 C 0.5400(6) 0.6508(7) 0.7874(10)
H10 H 0.555834 0.682575 0.810968
C22 C 0.5204(6) 0.5885(7) 0.6663(11)
H11 H 0.523080 0.578399 0.608022
C23 C 0.5109(6) 0.6164(6) 0.8396(10)
H12 H 0.507733 0.626206 0.898010
C24 C 0.4503(6) 0.4015(7) 0.7048(13)
H13 H 0.473936 0.387672 0.663625
C25 C 0.4636(7) 0.4473(8) 0.7609(13)
H14 H 0.496167 0.464997 0.754102
C26 C 0.3782(6) 0.4425(6) 0.8280(10)
H15 H 0.352658 0.456320 0.866036
C27 C 0.3651(6) 0.3983(6) 0.7737(9)
H16 H 0.331490 0.382613 0.778517
O6 O 0.4230(5) 0.3031(5) 0.6233(8)
O7 O 0.3372(15) 0.315(4) 0.656(7)
Cu1 Cu 0.48666(12) 0.47757(10) 0.99663(16)
O8 O 0.4114(6) 0.4440(7) 1.0390(11)
C28 C 0.3887(7) 0.4500(8) 1.1107(13)
N3 N 0.3504(7) 0.4144(8) 1.1384(13)
C29 C 0.3223(11) 0.4183(13) 1.2197(16)
C30 C 0.3349(18) 0.3671(15) 1.083(3)
H17 H 0.398390 0.479851 1.146210
H18 H 0.297269 0.388152 1.223774
H19 H 0.347067 0.415874 1.267038
H20 H 0.303925 0.453466 1.222485
H21 H 0.307514 0.345937 1.111041
H22 H 0.321908 0.381079 1.028079
H23 H 0.365046 0.343506 1.072681
O9 O 0.5073(7) 0.3991(5) 0.9405(9)
C31 C 0.4817(8) 0.3609(7) 0.9064(9)
N4 N 0.5060(7) 0.3226(6) 0.8539(8)
C32 C 0.5636(5) 0.3288(7) 0.8399(11)
C33 C 0.4783(10) 0.2783(9) 0.8137(16)
H24 H 0.575922 0.299552 0.802061
H25 H 0.570711 0.364586 0.813734
H26 H 0.581684 0.326361 0.894795
H27 H 0.445411 0.358145 0.916553
C13F C 0.2197(5) 0.2974(4) 0.7296(6)
H3F H 0.232783 0.331336 0.708987
C15F C 0.0355(5) 0.2022(5) 0.9373(9)
H4F H 0.019683 0.168051 0.950679
C16F C 0.1793(5) 0.2993(4) 0.7882(8)
H5F H 0.167296 0.333411 0.809718
C19F C 0.0838(4) 0.2017(5) 0.8973(10)
H8F H 0.100459 0.167480 0.888026
O9F O 0.5073(7) 0.1009(5) 0.9405(9)
C31F C 0.4817(8) 0.1391(7) 0.9064(9)
N4F N 0.5060(7) 0.1774(6) 0.8539(8)
C32F C 0.5636(5) 0.1712(7) 0.8399(11)
C33F C 0.4783(10) 0.2217(9) 0.8137(16)
H24F H 0.575922 0.200448 0.802061
H25F H 0.570711 0.135414 0.813734
H26F H 0.581684 0.173639 0.894795
H27F H 0.445411 0.141855 0.916553
P1D P 0.54811(11) 0.47511(9) 0.10984(15)
O1D O 0.7507(3) 0.3122(3) -0.0359(4)
O3D O 0.7684(3) 0.3123(4) 0.1072(5)
O4D O 0.379(2) 0.307(3) 0.327(5)
C1D C 0.6956(3) 0.3656(3) 0.0597(6)
C2D C 0.6092(4) 0.4346(3) 0.0853(6)
C5D C 0.7434(4) 0.3273(3) 0.0377(6)
C6D C 0.5134(4) 0.4305(4) 0.1868(6)
C7D C 0.4540(3) 0.3605(4) 0.2967(6)
C8D C 0.6243(4) 0.4229(4) 0.0027(6)
H1D H 0.605898 0.437817 -0.044368
C9D C 0.6024(4) 0.6223(3) 0.2839(5)
O5D O 0.4379(5) 0.3216(5) 0.4376(6)
C10D C 0.4227(4) 0.3241(4) 0.3558(6)
C11D C 0.6155(4) 0.6722(4) 0.3449(6)
C12D C 0.6672(4) 0.3885(4) -0.0106(6)
H2D H 0.677687 0.380122 -0.067270
C14D C 0.5722(4) 0.5334(4) 0.1726(7)
C17D C 0.6805(5) 0.3779(4) 0.1423(6)
H6D H 0.698949 0.363310 0.189534
C18D C 0.6368(5) 0.4127(4) 0.1552(6)
H7D H 0.626181 0.421338 0.211602
C20D C 0.5085(6) 0.4432(7) 0.2715(10)
H9D H 0.525539 0.475349 0.291210
C21D C 0.4600(6) 0.3492(7) 0.2126(10)
H10D H 0.444166 0.317425 0.189032
C22D C 0.4796(6) 0.4115(7) 0.3337(11)
H11D H 0.476920 0.421601 0.391978
C23D C 0.4891(6) 0.3836(6) 0.1604(10)
H12D H 0.492267 0.373794 0.101990
C24D C 0.5497(6) 0.5985(7) 0.2952(13)
H13D H 0.526064 0.612328 0.336375
C25D C 0.5364(7) 0.5527(8) 0.2391(13)
H14D H 0.503833 0.535003 0.245898
C26D C 0.6218(6) 0.5575(6) 0.1720(10)
H15D H 0.647342 0.543680 0.133964
C27D C 0.6349(6) 0.6017(6) 0.2263(9)
H16D H 0.668510 0.617387 0.221483
O6D O 0.5770(5) 0.6969(5) 0.3767(8)
O7D O 0.6628(15) 0.685(4) 0.344(7)
Cu1D Cu 0.51334(12) 0.52243(10) 0.00337(16)
O8D O 0.5886(6) 0.5560(7) -0.0390(11)
C28D C 0.6113(7) 0.5500(8) -0.1107(13)
N3D N 0.6496(7) 0.5856(8) -0.1384(13)
C29D C 0.6777(11) 0.5817(13) -0.2197(16)
C30D C 0.6651(18) 0.6329(15) -0.083(3)
H17D H 0.601610 0.520149 -0.146210
H18D H 0.702731 0.611848 -0.223774
H19D H 0.652933 0.584126 -0.267038
H20D H 0.696075 0.546534 -0.222485
H21D H 0.692486 0.654063 -0.111041
H22D H 0.678092 0.618921 -0.028079
H23D H 0.634954 0.656494 -0.072681
Co1A Co 0.20274(8) 0.750000 1.09268(12)
Co1B Co 0.70274(8) 0.750000 0.40732(12)
Co1C Co 0.79726(8) 0.250000 -0.09268(12)
Co2A Co 0.17690(9) 0.750000 0.86711(14)
Co2B Co 0.67690(9) 0.750000 0.63289(14)
Co2C Co 0.82310(9) 0.250000 0.13289(14)
Co3B Co 0.57268(8) 0.750000 0.48331(13)
Co3C Co -0.07268(8) 0.250000 0.98331(13)
P1_2 P 0.45189(11) 0.52489(9) -0.10984(15)
P1D_2 P 0.54811(11) 0.47511(9) 1.10984(15)
O1A O 0.2507(3) 0.3122(3) 0.5359(4)
O1G O 0.2507(3) 0.1878(3) 0.5359(4)
N1C N 0.5095(4) 0.250000 0.5413(6)
O3A O 0.2684(3) 0.3123(4) 0.3928(5)
O3G O 0.2684(3) 0.1877(4) 0.3928(5)
O4B O 0.379(2) 0.193(3) 0.327(5)
O5B O 0.4379(5) 0.1784(5) 0.4376(6)
O6F O 0.4230(5) 0.1969(5) 0.6233(8)
O7F O 0.3372(15) 0.185(4) 0.656(7)
Cu1_2 Cu 0.48666(12) 0.47757(10) -0.00337(16)
Cu1D_2 Cu 0.51334(12) 0.52243(10) 1.00337(16)
Cu1F Cu 0.48666(12) 0.02243(10) 0.99663(16)
O9D O 0.4927(7) 0.6009(5) 0.0595(9)
O10? O 0.3384(17) 0.312(5) 0.662(8)
O11? O 0.4170(6) 0.3198(5) 0.5904(9)
C34? C 0.3627(7) 0.4146(6) 0.7466(10)
H28? H 0.327340 0.410697 0.730662
C35? C 0.3765(6) 0.4588(7) 0.8010(11)
H29? H 0.350424 0.483487 0.819912
C36? C 0.4530(7) 0.3818(7) 0.7407(11)
H30? H 0.478102 0.356207 0.721128
C37? C 0.4667(7) 0.4274(7) 0.7971(11)
H31? H 0.501731 0.431715 0.814394
C38? C 0.4957(8) 0.6179(9) 0.6736(14)
H32? H 0.481664 0.626106 0.619019
C39? C 0.4696(9) 0.5832(9) 0.7346(12)
H33? H 0.437111 0.568479 0.717742
C40? C 0.5341(8) 0.5904(8) 0.8398(13)
H34? H 0.546910 0.581349 0.894738
C41? C 0.5636(9) 0.6252(8) 0.7858(11)
H35? H 0.595801 0.639228 0.805458
O12? O 0.624(3) 0.689(5) 0.666(7)
O13? O 0.5526(7) 0.7055(7) 0.5914(9)
H36? H 0.502478 0.256267 0.779732
H37? H 0.462288 0.255176 0.857578
H38? H 0.451233 0.293354 0.776495
loop_
_geom_bond_atom_site_label_1
_geom_bond_atom_site_label_2
_geom_bond_site_symmetry_1
_geom_bond_site_symmetry_2
Co1 F1 1_555 1_555
Co2 F1 1_555 1_555
Co3 F1 1_555 1_555
P1 C2 1_555 1_555
O1 C5 1_555 1_555
O2 Co2 1_555 1_555
N1 C15 1_555 1_555
O3 C5 1_555 1_555
O4 C10 1_555 1_555
N2 Co1 1_555 1_555
C1 C5 1_555 1_555
C2 C8 1_555 1_555
C3 C4 1_555 1_555
C4 C16 1_555 1_555
C6 P1 1_555 1_555
C7 C10 1_555 1_555
C8 H1 1_555 1_555
C9 C11 1_555 1_555
O5 C10 1_555 1_555
C11 O6 1_555 1_555
C12 C1 1_555 1_555
H2 C12 1_555 1_555
C13 N2 1_555 1_555
H3 C13 1_555 1_555
C14 P1 1_555 1_555
C15 H4 1_555 1_555
C16 C13 1_555 1_555
H5 C16 1_555 1_555
C17 C1 1_555 1_555
H6 C17 1_555 1_555
C18 C2 1_555 1_555
H7 C18 1_555 1_555
C19 C3 1_555 1_555
H8 C19 1_555 1_555
C20 C6 1_555 1_555
H9 C20 1_555 1_555
C21 C7 1_555 1_555
H10 C21 1_555 1_555
C22 C7 1_555 1_555
H11 C22 1_555 1_555
C23 C6 1_555 1_555
H12 C23 1_555 1_555
C24 C9 1_555 1_555
H13 C24 1_555 1_555
C25 C14 1_555 1_555
H14 C25 1_555 1_555
C26 C14 1_555 1_555
H15 C26 1_555 1_555
C27 C9 1_555 1_555
H16 C27 1_555 1_555
O6 Co3 1_555 1_555
O7 Co1 1_555 1_555
Cu1 P1 1_555 1_555
O8 Cu1 1_555 1_555
C28 O8 1_555 1_555
N3 C28 1_555 1_555
C29 N3 1_555 1_555
C30 N3 1_555 1_555
H17 C28 1_555 1_555
H18 C29 1_555 1_555
H19 C29 1_555 1_555
H20 C29 1_555 1_555
H21 C30 1_555 1_555
H22 C30 1_555 1_555
H23 C30 1_555 1_555
O9 Cu1 1_555 1_555
C31 O9 1_555 1_555
N4 C31 1_555 1_555
C32 N4 1_555 1_555
C33 N4 1_555 1_555
H24 C32 1_555 1_555
H25 C32 1_555 1_555
H26 C32 1_555 1_555
H27 C31 1_555 1_555
C13F N2 1_555 1_555
H3F C13F 1_555 1_555
C15F N1 1_555 1_555
H4F C15F 1_555 1_555
C16F C4 1_555 1_555
H5F C16F 1_555 1_555
C19F C3 1_555 1_555
H8F C19F 1_555 1_555
O9F C31F 1_555 1_555
C31F N4F 1_555 1_555
N4F C32F 1_555 1_555
C32F H24F 1_555 1_555
C33F C33 1_555 1_555
H25F C32F 1_555 1_555
H26F C32F 1_555 1_555
H27F C31F 1_555 1_555
P1D C2D 1_555 1_555
O1D C5D 1_555 1_555
O3D C5D 1_555 1_555
O4D Co2 1_555 1_555
C1D C5D 1_555 1_555
C2D C8D 1_555 1_555
C6D P1D 1_555 1_555
C7D C10D 1_555 1_555
C8D H1D 1_555 1_555
C9D C11D 1_555 1_555
O5D Co3 1_555 1_555
C10D O4D 1_555 1_555
C11D O6D 1_555 1_555
C12D C1D 1_555 1_555
H2D C12D 1_555 1_555
C14D P1D 1_555 1_555
C17D C1D 1_555 1_555
H6D C17D 1_555 1_555
C18D C2D 1_555 1_555
H7D C18D 1_555 1_555
C20D C6D 1_555 1_555
H9D C20D 1_555 1_555
C21D C7D 1_555 1_555
H10D C21D 1_555 1_555
C22D C7D 1_555 1_555
H11D C22D 1_555 1_555
C23D C6D 1_555 1_555
H12D C23D 1_555 1_555
C24D C9D 1_555 1_555
H13D C24D 1_555 1_555
C25D C14D 1_555 1_555
H14D C25D 1_555 1_555
C26D C14D 1_555 1_555
H15D C26D 1_555 1_555
C27D C9D 1_555 1_555
H16D C27D 1_555 1_555
O6D Co3B 1_555 1_555
O7D C11D 1_555 1_555
Cu1D P1D 1_555 1_555
O8D Cu1D 1_555 1_555
C28D O8D 1_555 1_555
N3D C28D 1_555 1_555
C29D N3D 1_555 1_555
C30D N3D 1_555 1_555
H17D C28D 1_555 1_555
H18D C29D 1_555 1_555
H19D C29D 1_555 1_555
H20D C29D 1_555 1_555
H21D C30D 1_555 1_555
H22D C30D 1_555 1_555
H23D C30D 1_555 1_555
Co1A O1 1_555 1_555
Co1B O7D 1_555 1_555
Co1C O1D 1_555 1_555
Co2A O3 1_555 1_555
Co2B O4 1_555 1_555
Co2C O3D 1_555 1_555
Co3B O5 1_555 1_555
Co3C N1 1_555 1_555
P1_2 Cu1D 1_555 1_555
P1D_2 Cu1 1_555 1_555
O1A Co1 1_555 1_555
O1G Co1 1_555 1_555
N1C Co3 1_555 1_555
O3A Co2 1_555 1_555
O3G Co2 1_555 1_555
O4B Co2 1_555 1_555
O5B Co3 1_555 1_555
O6F Co3 1_555 1_555
O7F Co1 1_555 1_555
Cu1_2 P1D 1_555 1_555
Cu1D_2 P1 1_555 1_555
Cu1F O9F 1_555 1_555
O9D Cu1D 1_555 1_555
C8 C12 1_555 1_555
C11 O7 1_555 1_555
C15 C19 1_555 1_555
C17 C18 1_555 1_555
C20 C22 1_555 1_555
C21 C23 1_555 1_555
C24 C25 1_555 1_555
C26 C27 1_555 1_555
C13F C16F 1_555 1_555
C15F C19F 1_555 1_555
N4F C33F 1_555 1_555
C8D C12D 1_555 1_555
O5D C10D 1_555 1_555
C17D C18D 1_555 1_555
C20D C22D 1_555 1_555
C21D C23D 1_555 1_555
C24D C25D 1_555 1_555
C26D C27D 1_555 1_555
P1_2 Cu1_2 1_555 1_555
P1D_2 Cu1D_2 1_555 1_555

#END
