
#######################################################################
#
#                 Cambridge Crystallographic Data Centre
#                                CCDC 
#
#######################################################################
#
# If this CIF has been generated from an entry in the Cambridge 
# Structural Database, then it will include bibliographic, chemical, 
# crystal, experimental, refinement or atomic coordinate data resulting 
# from the CCDC's data processing and validation procedures.
#
#######################################################################

data_ABEDEU
_symmetry_cell_setting           orthorhombic
_symmetry_space_group_name_H-M   'P n m a'
_symmetry_Int_Tables_number      62
_space_group_name_Hall           '-P 2ac 2n'
loop_
_symmetry_equiv_pos_site_id
_symmetry_equiv_pos_as_xyz
1 x,y,z
2 1/2-x,-y,1/2+z
3 -x,1/2+y,-z
4 1/2+x,1/2-y,1/2-z
5 -x,-y,-z
6 1/2+x,y,1/2-z
7 x,1/2-y,z
8 1/2-x,1/2+y,1/2+z
_cell_length_a                   25.1348(8)
_cell_length_b                   24.0762(5)
_cell_length_c                   15.4212(5)
_cell_angle_alpha                90
_cell_angle_beta                 90
_cell_angle_gamma                90
_cell_volume                     9332.15
loop_
_atom_site_label
_atom_site_type_symbol
_atom_site_fract_x
_atom_site_fract_y
_atom_site_fract_z
Au1 Au 0.500000 0.500000 1.000000
Co1 Co 0.29611(6) 0.250000 0.41000(9)
Co2 Co 0.57295(6) 0.750000 0.51402(9)
Co3 Co 0.32283(6) 0.250000 0.63594(9)
P1 P 0.55079(7) 0.47561(6) 0.88192(10)
F1 F 0.3479(2) 0.250000 0.5112(3)
O1 O 0.58064(19) 0.6897(2) 0.6080(4)
N1 N 0.2410(3) 0.250000 0.3068(5)
O2 O 0.6639(2) 0.6870(2) 0.6554(3)
O3 O 0.4421(2) 0.3116(3) 0.5761(4)
O4 O 0.7665(2) 0.3106(2) 0.8892(3)
O5 O 0.3770(2) 0.3091(3) 0.6748(4)
O6 O 0.7492(2) 0.3113(3) 1.0320(4)
O7 O 0.2963(3) 0.250000 0.7659(5)
N2 N 0.0100(3) 0.250000 0.0447(5)
C1 C 0.1082(4) 0.250000 0.1317(6)
C2 C 0.6099(3) 0.4343(3) 0.9066(4)
C3 C 0.6164(3) 0.6718(2) 0.6536(4)
C4 C 0.5724(3) 0.5344(3) 0.8175(4)
C5 C 0.6957(3) 0.3646(3) 0.9388(4)
C6 C 0.4522(3) 0.3630(3) 0.7018(4)
C7 C 0.4212(3) 0.3248(3) 0.6453(4)
C8 C 0.6016(3) 0.6240(2) 0.7147(4)
C9 C 0.7411(3) 0.3251(3) 0.9548(5)
C10 C 0.5118(3) 0.4333(3) 0.8088(4)
C11 C 0.1558(4) 0.250000 0.1889(7)
C12 C 0.0827(3) 0.2006(3) 0.1060(5)
H1 H 0.098767 0.165797 0.118451
C13 C 0.0347(3) 0.2021(3) 0.0634(5)
H2 H 0.018524 0.168114 0.046543
C14 C 0.6223(3) 0.4205(4) 0.9877(5)
H3 H 0.602207 0.434609 1.035031
C15 C 0.6653(4) 0.3852(4) 1.0022(5)
H4 H 0.673474 0.375219 1.060303
C16 C 0.6390(3) 0.5957(4) 0.7615(6)
H5 H 0.675262 0.606839 0.759581
C17 C 0.1782(3) 0.2007(3) 0.2181(6)
H6 H 0.165374 0.165973 0.197440
C18 C 0.2196(3) 0.2026(3) 0.2778(6)
H7 H 0.233425 0.168516 0.299140
C19 C 0.5356(3) 0.5645(4) 0.7766(7)
H8 H 0.499080 0.555418 0.783815
C20 C 0.5496(4) 0.6087(4) 0.7239(7)
H9 H 0.522648 0.628595 0.693789
C21 C 0.6235(3) 0.5502(4) 0.8125(6)
H10 H 0.649710 0.530187 0.844002
C22 C 0.6825(4) 0.3782(5) 0.8574(6)
H11 H 0.702322 0.363092 0.810574
C23 C 0.5203(4) 0.4319(5) 0.7221(6)
H12 H 0.545409 0.456484 0.696610
C24 C 0.4923(4) 0.3942(5) 0.6696(6)
H13 H 0.501785 0.390543 0.610267
C25 C 0.4435(4) 0.3644(5) 0.7888(6)
H14 H 0.416627 0.341700 0.813554
C26 C 0.6398(4) 0.4144(5) 0.8398(6)
H15 H 0.631934 0.424906 0.781785
C27 C 0.4739(4) 0.3992(5) 0.8422(6)
H16 H 0.467878 0.398895 0.903018
C12F C 0.0827(3) 0.2994(3) 0.1060(5)
H1F H 0.098767 0.334203 0.118451
C13F C 0.0347(3) 0.2979(3) 0.0634(5)
H2F H 0.018524 0.331886 0.046543
C17F C 0.1782(3) 0.2993(3) 0.2181(6)
H6F H 0.165374 0.334027 0.197440
C18F C 0.2196(3) 0.2974(3) 0.2778(6)
H7F H 0.233425 0.331484 0.299140
P1D P 0.44921(7) 0.52439(6) 0.11808(10)
O1D O 0.41936(19) 0.3103(2) 0.3920(4)
O2D O 0.3361(2) 0.3130(2) 0.3446(3)
O3D O 0.5579(2) 0.6884(3) 0.4239(4)
O4D O 0.2335(2) 0.6894(2) 0.1108(3)
O5D O 0.6230(2) 0.6909(3) 0.3252(4)
O6D O 0.2508(2) 0.6887(3) -0.0320(4)
C2D C 0.3901(3) 0.5657(3) 0.0934(4)
C3D C 0.3836(3) 0.3282(2) 0.3464(4)
C4D C 0.4276(3) 0.4656(3) 0.1825(4)
C5D C 0.3043(3) 0.6354(3) 0.0612(4)
C6D C 0.5478(3) 0.6370(3) 0.2982(4)
C7D C 0.5788(3) 0.6752(3) 0.3547(4)
C8D C 0.3984(3) 0.3760(2) 0.2853(4)
C9D C 0.2589(3) 0.6749(3) 0.0452(5)
C10D C 0.4882(3) 0.5667(3) 0.1912(4)
C14D C 0.3777(3) 0.5795(4) 0.0123(5)
H3D H 0.397793 0.565391 -0.035031
C15D C 0.3347(4) 0.6148(4) -0.0022(5)
H4D H 0.326526 0.624781 -0.060303
C16D C 0.3610(3) 0.4043(4) 0.2385(6)
H5D H 0.324738 0.393161 0.240419
C19D C 0.4644(3) 0.4355(4) 0.2234(7)
H8D H 0.500920 0.444582 0.216185
C20D C 0.4504(4) 0.3913(4) 0.2761(7)
H9D H 0.477352 0.371405 0.306211
C21D C 0.3765(3) 0.4498(4) 0.1875(6)
H10D H 0.350290 0.469813 0.155998
C22D C 0.3175(4) 0.6218(5) 0.1426(6)
H11D H 0.297678 0.636908 0.189426
C23D C 0.4797(4) 0.5681(5) 0.2779(6)
H12D H 0.454591 0.543516 0.303390
C24D C 0.5077(4) 0.6058(5) 0.3304(6)
H13D H 0.498215 0.609457 0.389733
C25D C 0.5565(4) 0.6356(5) 0.2112(6)
H14D H 0.583373 0.658300 0.186446
C26D C 0.3602(4) 0.5856(5) 0.1602(6)
H15D H 0.368066 0.575094 0.218215
C27D C 0.5261(4) 0.6008(5) 0.1578(6)
H16D H 0.532122 0.601105 0.096982
Au1_2 Au 0.500000 0.500000 0.000000
Co1A Co 0.20389(6) 0.750000 -0.09000(9)
Co1B Co 0.70389(6) 0.750000 0.59000(9)
Co1C Co 0.79611(6) 0.250000 1.09000(9)
Co2A Co -0.07295(6) 0.250000 0.01402(9)
Co2B Co 0.42705(6) 0.250000 0.48598(9)
Co3A Co 0.17717(6) 0.750000 0.13594(9)
Co3B Co 0.67717(6) 0.750000 0.36406(9)
Co3C Co 0.82283(6) 0.250000 0.86406(9)
P1D_2 P 0.44921(7) 0.52439(6) 1.11808(10)
F1B F 0.6521(2) 0.750000 0.4888(3)
O1F O 0.58064(19) 0.8103(2) 0.6080(4)
O2B O 0.3361(2) 0.1870(2) 0.3446(3)
O3B O 0.5579(2) 0.8116(3) 0.4239(4)
O4C O 0.2665(2) 0.1894(2) 0.6108(3)
O4E O 0.2665(2) 0.3106(2) 0.6108(3)
O5F O 0.3770(2) 0.1909(3) 0.6748(4)
O6C O 0.2492(2) 0.1887(3) 0.4680(4)
O6E O 0.2492(2) 0.3113(3) 0.4680(4)
N2A N 0.4900(3) 0.750000 0.5447(5)
loop_
_geom_bond_atom_site_label_1
_geom_bond_atom_site_label_2
_geom_bond_site_symmetry_1
_geom_bond_site_symmetry_2
Au1 P1 1_555 1_555
Co1 F1 1_555 1_555
Co2 O1 1_555 1_555
Co3 F1 1_555 1_555
P1 C2 1_555 1_555
F1 Co2B 1_555 1_555
O1 C3 1_555 1_555
N1 Co1 1_555 1_555
O2 C3 1_555 1_555
O3 C7 1_555 1_555
O4 C9 1_555 1_555
O5 Co3 1_555 1_555
O6 C9 1_555 1_555
O7 Co3 1_555 1_555
N2 C13 1_555 1_555
C1 C11 1_555 1_555
C2 C14 1_555 1_555
C3 C8 1_555 1_555
C4 P1 1_555 1_555
C5 C9 1_555 1_555
C6 C7 1_555 1_555
C7 O5 1_555 1_555
C8 C16 1_555 1_555
C10 P1 1_555 1_555
C11 C17 1_555 1_555
C12 C1 1_555 1_555
H1 C12 1_555 1_555
C13 C12 1_555 1_555
H2 C13 1_555 1_555
C14 H3 1_555 1_555
C15 C5 1_555 1_555
H4 C15 1_555 1_555
C16 H5 1_555 1_555
C17 H6 1_555 1_555
C18 N1 1_555 1_555
H7 C18 1_555 1_555
C19 C4 1_555 1_555
H8 C19 1_555 1_555
C20 C8 1_555 1_555
H9 C20 1_555 1_555
C21 C4 1_555 1_555
H10 C21 1_555 1_555
C22 C5 1_555 1_555
H11 C22 1_555 1_555
C23 C10 1_555 1_555
H12 C23 1_555 1_555
C24 C6 1_555 1_555
H13 C24 1_555 1_555
C25 C6 1_555 1_555
H14 C25 1_555 1_555
C26 C2 1_555 1_555
H15 C26 1_555 1_555
C27 C10 1_555 1_555
H16 C27 1_555 1_555
C12F C1 1_555 1_555
H1F C12F 1_555 1_555
C13F N2 1_555 1_555
H2F C13F 1_555 1_555
C17F C11 1_555 1_555
H6F C17F 1_555 1_555
C18F N1 1_555 1_555
H7F C18F 1_555 1_555
P1D C2D 1_555 1_555
O1D C3D 1_555 1_555
O2D Co1 1_555 1_555
O3D Co2 1_555 1_555
O4D C9D 1_555 1_555
O5D C7D 1_555 1_555
O6D C9D 1_555 1_555
C2D C14D 1_555 1_555
C3D O2D 1_555 1_555
C4D P1D 1_555 1_555
C5D C9D 1_555 1_555
C6D C7D 1_555 1_555
C7D O3D 1_555 1_555
C8D C3D 1_555 1_555
C10D P1D 1_555 1_555
C14D H3D 1_555 1_555
C15D C5D 1_555 1_555
H4D C15D 1_555 1_555
C16D C8D 1_555 1_555
H5D C16D 1_555 1_555
C19D C4D 1_555 1_555
H8D C19D 1_555 1_555
C20D C8D 1_555 1_555
H9D C20D 1_555 1_555
C21D C4D 1_555 1_555
H10D C21D 1_555 1_555
C22D C5D 1_555 1_555
H11D C22D 1_555 1_555
C23D C10D 1_555 1_555
H12D C23D 1_555 1_555
C24D C6D 1_555 1_555
H13D C24D 1_555 1_555
C25D C6D 1_555 1_555
H14D C25D 1_555 1_555
C26D C2D 1_555 1_555
H15D C26D 1_555 1_555
C27D C10D 1_555 1_555
H16D C27D 1_555 1_555
Au1_2 P1D 1_555 1_555
Co1A O6D 1_555 1_555
Co1B O2 1_555 1_555
Co1C O6 1_555 1_555
Co2A N2 1_555 1_555
Co2B O3 1_555 1_555
Co3A O4D 1_555 1_555
Co3B O5D 1_555 1_555
Co3C O4 1_555 1_555
P1D_2 Au1 1_555 1_555
F1B Co2 1_555 1_555
O1F Co2 1_555 1_555
O2B Co1 1_555 1_555
O3B Co2 1_555 1_555
O4C Co3 1_555 1_555
O4E Co3 1_555 1_555
O5F Co3 1_555 1_555
O6C Co1 1_555 1_555
O6E Co1 1_555 1_555
N2A Co2 1_555 1_555
C14 C15 1_555 1_555
C16 C21 1_555 1_555
C17 C18 1_555 1_555
C19 C20 1_555 1_555
C22 C26 1_555 1_555
C23 C24 1_555 1_555
C25 C27 1_555 1_555
C12F C13F 1_555 1_555
C17F C18F 1_555 1_555
O1D Co2B 1_555 1_555
C14D C15D 1_555 1_555
C16D C21D 1_555 1_555
C19D C20D 1_555 1_555
C22D C26D 1_555 1_555
C23D C24D 1_555 1_555
C25D C27D 1_555 1_555
Co1B F1B 1_555 1_555
Co3B F1B 1_555 1_555

#END
