
#######################################################################
#
#                 Cambridge Crystallographic Data Centre
#                                CCDC 
#
#######################################################################
#
# If this CIF has been generated from an entry in the Cambridge 
# Structural Database, then it will include bibliographic, chemical, 
# crystal, experimental, refinement or atomic coordinate data resulting 
# from the CCDC's data processing and validation procedures.
#
#######################################################################

data_ABINIM
_symmetry_cell_setting           monoclinic
_symmetry_space_group_name_H-M   'I 2/a'
_symmetry_Int_Tables_number      15
_space_group_name_Hall           '-I 2ya'
loop_
_symmetry_equiv_pos_site_id
_symmetry_equiv_pos_as_xyz
1 x,y,z
2 1/2-x,y,-z
3 1/2+x,1/2+y,1/2+z
4 -x,1/2+y,1/2-z
5 -x,-y,-z
6 1/2+x,-y,z
7 1/2-x,1/2-y,1/2-z
8 x,1/2-y,1/2+z
_cell_length_a                   12.565(3)
_cell_length_b                   28.660(7)
_cell_length_c                   16.104(5)
_cell_angle_alpha                90
_cell_angle_beta                 109.569(3)
_cell_angle_gamma                90
_cell_volume                     5464.29
loop_
_atom_site_label
_atom_site_type_symbol
_atom_site_fract_x
_atom_site_fract_y
_atom_site_fract_z
_atom_site_U_iso_or_equiv
_atom_site_thermal_displace_type
Zn1 Zn 0.32963(8) 0.87630(3) 0.93169(6) 0.0578 Uani
C1 C 0.3388(8) 0.7894(3) 0.9303(7) 0.0730 Uani
C2 C 0.3482(7) 0.7385(3) 0.9324(6) 0.0614 Uani
C3 C 0.3178(8) 0.7140(3) 0.8558(6) 0.0775 Uani
H1 H 0.292706 0.729797 0.802329 0.0930 Uiso
C4 C 0.3237(7) 0.6649(3) 0.8566(6) 0.0723 Uani
H2 H 0.303789 0.648870 0.803374 0.0870 Uiso
C5 C 0.3581(6) 0.6402(2) 0.9338(5) 0.0559 Uani
C6 C 0.3869(7) 0.6652(3) 1.0132(5) 0.0624 Uani
H3 H 0.407178 0.649114 1.066398 0.0750 Uiso
C7 C 0.3857(7) 0.7150(3) 1.0135(6) 0.0630 Uani
H4 H 0.409130 0.731489 1.066271 0.0760 Uiso
C8 C 0.3591(6) 0.5891(3) 0.9305(5) 0.0508 Uani
C9 C 0.4550(6) 0.5630(2) 0.9813(4) 0.0445 Uani
C10 C 0.4519(5) 0.5131(2) 0.9755(4) 0.0428 Uani
C11 C 0.3534(6) 0.4908(2) 0.9177(4) 0.0455 Uani
C12 C 0.2620(6) 0.5173(2) 0.8667(5) 0.0463 Uani
C13 C 0.2678(6) 0.5655(3) 0.8721(5) 0.0551 Uani
H5 H 0.208057 0.582863 0.835133 0.0660 Uiso
C14 C 0.3536(6) 0.4407(3) 0.9160(5) 0.0573 Uani
H6 H 0.289475 0.425391 0.879949 0.0690 Uiso
C15 C 0.4409(6) 0.4153(3) 0.9635(5) 0.0553 Uani
H7 H 0.435341 0.382900 0.961415 0.0660 Uiso
C16 C 0.0891(6) 0.4678(3) 0.8256(5) 0.0596 Uani
H8 H 0.099681 0.464155 0.885209 0.0710 Uiso
C17 C 0.1636(6) 0.4949(2) 0.8001(5) 0.0446 Uani
C18 C 0.1449(6) 0.4994(3) 0.7113(5) 0.0586 Uani
H9 H 0.193839 0.517556 0.692675 0.0700 Uiso
C19 C 0.0549(6) 0.4774(3) 0.6487(5) 0.0563 Uani
H10 H 0.043442 0.481291 0.589038 0.0680 Uiso
C20 C -0.0174(6) 0.4498(2) 0.6755(5) 0.0491 Uani
C21 C -0.0011(6) 0.4460(3) 0.7634(6) 0.0648 Uani
H11 H -0.051388 0.428464 0.781857 0.0780 Uiso
C22 C -0.1147(8) 0.4222(3) 0.6104(6) 0.0579 Uani
C23 C 0.543(3) 0.9018(13) 0.913(3) 0.0771 Uani
H12 H 0.566520 0.899016 0.974341 0.0930 Uiso
C24 C 0.707(3) 0.9424(11) 0.938(2) 0.0793 Uani
H13 H 0.767026 0.921216 0.967618 0.1190 Uiso
H14 H 0.684272 0.959423 0.979929 0.1190 Uiso
H15 H 0.733925 0.963833 0.903004 0.1190 Uiso
C25 C 0.587(4) 0.9162(15) 0.7832(18) 0.0712 Uani
H16 H 0.524115 0.895816 0.758243 0.1070 Uiso
H17 H 0.653615 0.902629 0.775794 0.1070 Uiso
H18 H 0.572418 0.945835 0.753795 0.1070 Uiso
N1 N 0.613(2) 0.9169(10) 0.8756(18) 0.0758 Uani
O1 O 0.3776(5) 0.81422(19) 0.9996(4) 0.0801 Uani
O2 O 0.2914(6) 0.8097(2) 0.8594(5) 0.1035 Uani
O3 O -0.1887(5) 0.40602(18) 0.6359(4) 0.0675 Uani
O4 O -0.1081(5) 0.41964(18) 0.5339(4) 0.0679 Uani
O5 O 0.4451(6) 0.8945(2) 0.8749(5) 0.0899 Uani
C1D C 0.6612(8) 0.2106(3) 1.0697(7) 0.0730 Uani
C2D C 0.6518(7) 0.2615(3) 1.0676(6) 0.0614 Uani
C3D C 0.6822(8) 0.2860(3) 1.1442(6) 0.0775 Uani
H1D H 0.707294 0.270203 1.197671 0.0930 Uiso
C4D C 0.6763(7) 0.3351(3) 1.1434(6) 0.0723 Uani
H2D H 0.696211 0.351130 1.196626 0.0870 Uiso
C5D C 0.6419(6) 0.3598(2) 1.0662(5) 0.0559 Uani
C6D C 0.6131(7) 0.3348(3) 0.9868(5) 0.0624 Uani
H3D H 0.592822 0.350886 0.933602 0.0750 Uiso
C7D C 0.6143(7) 0.2850(3) 0.9865(6) 0.0630 Uani
H4D H 0.590870 0.268511 0.933729 0.0760 Uiso
C8D C 0.6409(6) 0.4109(3) 1.0695(5) 0.0508 Uani
C9D C 0.5450(6) 0.4370(2) 1.0187(4) 0.0445 Uani
C10D C 0.5481(5) 0.4869(2) 1.0245(4) 0.0428 Uani
C11D C 0.6466(6) 0.5092(2) 1.0823(4) 0.0455 Uani
C12D C 0.7380(6) 0.4827(2) 1.1333(5) 0.0463 Uani
C13D C 0.7322(6) 0.4345(3) 1.1279(5) 0.0551 Uani
H5D H 0.791943 0.417137 1.164867 0.0660 Uiso
C14D C 0.6464(6) 0.5593(3) 1.0840(5) 0.0573 Uani
H6D H 0.710525 0.574609 1.120051 0.0690 Uiso
C15D C 0.5591(6) 0.5847(3) 1.0365(5) 0.0553 Uani
H7D H 0.564659 0.617100 1.038585 0.0660 Uiso
C16D C 0.9109(6) 0.5322(3) 1.1744(5) 0.0596 Uani
H8D H 0.900319 0.535845 1.114791 0.0710 Uiso
C17D C 0.8364(6) 0.5051(2) 1.1999(5) 0.0446 Uani
C18D C 0.8551(6) 0.5006(3) 1.2887(5) 0.0586 Uani
H9D H 0.806161 0.482444 1.307325 0.0700 Uiso
C19D C 0.9451(6) 0.5226(3) 1.3513(5) 0.0563 Uani
H10D H 0.956558 0.518709 1.410962 0.0680 Uiso
C20D C 1.0174(6) 0.5502(2) 1.3245(5) 0.0491 Uani
C21D C 1.0011(6) 0.5540(3) 1.2366(6) 0.0648 Uani
H11D H 1.051388 0.571536 1.218143 0.0780 Uiso
C22D C 1.1147(8) 0.5778(3) 1.3896(6) 0.0579 Uani
O1D O 0.6224(5) 0.18578(19) 1.0004(4) 0.0801 Uani
O2D O 0.7086(6) 0.1903(2) 1.1406(5) 0.1035 Uani
O3D O 1.1887(5) 0.59398(18) 1.3641(4) 0.0675 Uani
O4D O 1.1081(5) 0.58036(18) 1.4661(4) 0.0679 Uani
Zn1D Zn 0.67037(8) 0.12370(3) 1.06831(6) 0.0578 Uani
C23D C 0.457(3) 0.0982(13) 1.087(3) 0.0771 Uani
H12D H 0.433480 0.100984 1.025659 0.0930 Uiso
C24D C 0.293(3) 0.0576(11) 1.062(2) 0.0793 Uani
H13D H 0.232974 0.078784 1.032382 0.1190 Uiso
H14D H 0.315728 0.040577 1.020071 0.1190 Uiso
H15D H 0.266075 0.036167 1.096996 0.1190 Uiso
C25D C 0.413(4) 0.0838(15) 1.2168(18) 0.0712 Uani
H16D H 0.475885 0.104184 1.241757 0.1070 Uiso
H17D H 0.346385 0.097371 1.224206 0.1070 Uiso
H18D H 0.427582 0.054165 1.246205 0.1070 Uiso
N1D N 0.387(2) 0.0831(10) 1.1244(18) 0.0758 Uani
O5D O 0.5549(6) 0.1055(2) 1.1251(5) 0.0899 Uani
Zn1B Zn -0.17037(8) 0.37630(3) 0.43169(6) 0.0578 Uani
Zn1C Zn -0.32963(8) 0.37630(3) 0.56831(6) 0.0578 Uani
Zn1F Zn 1.17037(8) 0.62370(3) 1.56831(6) 0.0578 Uani
Zn1G Zn 1.32963(8) 0.62370(3) 1.43169(6) 0.0578 Uani
O3C O 0.1887(5) 0.90602(18) 0.8641(4) 0.0675 Uani
O3G O 0.8113(5) 0.09398(18) 1.1359(4) 0.0675 Uani
O4B O 0.3919(5) 0.91964(18) 1.0339(4) 0.0679 Uani
O4F O 0.6081(5) 0.08036(18) 0.9661(4) 0.0679 Uani
C26? C 0.490(3) 0.8719(15) 0.840(2) 0.0783 Uani
H19? H 0.475261 0.840626 0.846986 0.0940 Uiso
C27? C 0.605(3) 0.8411(12) 0.755(2) 0.0903 Uani
H20? H 0.643409 0.857451 0.721652 0.1350 Uiso
H21? H 0.542264 0.824190 0.716271 0.1350 Uiso
H22? H 0.656373 0.819691 0.794823 0.1350 Uiso
C28? C 0.604(4) 0.9241(11) 0.814(3) 0.0736 Uani
H23? H 0.595435 0.938127 0.865589 0.1100 Uiso
H24? H 0.564442 0.942214 0.763127 0.1100 Uiso
H25? H 0.683060 0.923008 0.820647 0.1100 Uiso
N2? N 0.562(2) 0.8785(10) 0.7972(19) 0.0774 Uani
loop_
_atom_site_aniso_label
_atom_site_aniso_U_11
_atom_site_aniso_U_22
_atom_site_aniso_U_33
_atom_site_aniso_U_23
_atom_site_aniso_U_13
_atom_site_aniso_U_12
Zn1 0.0573(6) 0.0389(5) 0.0563(6) -0.0077(5) -0.0087(4) 0.0143(5)
C1 0.074(7) 0.061(6) 0.085(7) -0.001(6) 0.028(6) 0.011(6)
C2 0.070(6) 0.037(5) 0.066(6) -0.002(5) 0.008(5) 0.011(4)
C3 0.106(8) 0.046(5) 0.057(6) 0.007(5) -0.004(5) 0.022(5)
C4 0.093(7) 0.043(5) 0.060(6) -0.006(4) -0.002(5) 0.009(5)
C5 0.061(5) 0.030(4) 0.054(5) -0.005(4) -0.011(4) 0.010(3)
C6 0.061(6) 0.060(6) 0.052(5) -0.004(5) 0.000(4) 0.000(4)
C7 0.071(6) 0.036(5) 0.075(6) -0.006(5) 0.015(5) 0.005(4)
C8 0.043(5) 0.045(5) 0.047(5) -0.007(4) -0.008(4) -0.001(4)
C9 0.054(5) 0.032(4) 0.038(4) -0.007(3) 0.003(4) 0.000(4)
C10 0.035(4) 0.039(4) 0.043(5) -0.007(3) -0.002(4) -0.007(3)
C11 0.046(5) 0.032(4) 0.044(5) -0.006(3) -0.004(4) 0.000(3)
C12 0.039(4) 0.041(5) 0.046(5) -0.007(4) -0.003(4) -0.006(4)
C13 0.041(5) 0.053(5) 0.054(5) 0.000(4) -0.007(4) 0.002(4)
C14 0.044(5) 0.055(5) 0.055(5) -0.012(4) -0.007(4) -0.006(4)
C15 0.050(5) 0.034(4) 0.063(5) -0.010(4) -0.006(4) -0.001(4)
C16 0.047(5) 0.074(6) 0.044(5) -0.012(4) -0.003(4) -0.017(5)
C17 0.042(5) 0.044(5) 0.039(5) -0.010(4) 0.002(4) 0.001(4)
C18 0.043(5) 0.056(5) 0.064(6) -0.004(4) 0.001(4) -0.013(4)
C19 0.054(5) 0.053(5) 0.051(5) -0.012(4) 0.003(4) -0.013(4)
C20 0.048(5) 0.038(5) 0.045(5) -0.002(4) -0.006(4) -0.002(4)
C21 0.042(5) 0.078(7) 0.064(6) -0.001(5) 0.004(5) -0.022(4)
C22 0.053(6) 0.034(5) 0.055(6) -0.006(4) -0.024(5) 0.007(4)
C23 0.065(7) 0.086(8) 0.080(8) 0.014(7) 0.024(7) 0.016(7)
C24 0.069(7) 0.089(8) 0.082(8) 0.015(7) 0.028(7) 0.016(7)
C25 0.062(9) 0.083(10) 0.074(10) 0.012(9) 0.030(9) 0.020(9)
N1 0.063(7) 0.086(8) 0.080(8) 0.016(7) 0.026(7) 0.015(7)
O1 0.098(5) 0.050(4) 0.087(5) -0.016(3) 0.024(4) -0.001(3)
O2 0.131(6) 0.050(4) 0.099(5) 0.004(4) -0.002(5) 0.022(4)
O3 0.056(4) 0.056(4) 0.068(4) 0.009(3) -0.009(3) -0.027(3)
O4 0.060(4) 0.058(4) 0.066(4) -0.021(3) -0.005(3) -0.002(3)
O5 0.111(6) 0.067(4) 0.103(5) 0.014(4) 0.051(5) 0.021(4)
C1D 0.074 0.061 0.085 -0.001 0.028 0.011
C2D 0.07 0.037 0.066 -0.002 0.008 0.011
C3D 0.106 0.046 0.057 0.007 -0.004 0.022
C4D 0.093 0.043 0.06 -0.006 -0.002 0.009
C5D 0.061 0.03 0.054 -0.005 -0.011 0.01
C6D 0.061 0.06 0.052 -0.004 0 0
C7D 0.071 0.036 0.075 -0.006 0.015 0.005
C8D 0.043 0.045 0.047 -0.007 -0.008 -0.001
C9D 0.054 0.032 0.038 -0.007 0.003 0
C10D 0.035 0.039 0.043 -0.007 -0.002 -0.007
C11D 0.046 0.032 0.044 -0.006 -0.004 0
C12D 0.039 0.041 0.046 -0.007 -0.003 -0.006
C13D 0.041 0.053 0.054 0 -0.007 0.002
C14D 0.044 0.055 0.055 -0.012 -0.007 -0.006
C15D 0.05 0.034 0.063 -0.01 -0.006 -0.001
C16D 0.047 0.074 0.044 -0.012 -0.003 -0.017
C17D 0.042 0.044 0.039 -0.01 0.002 0.001
C18D 0.043 0.056 0.064 -0.004 0.001 -0.013
C19D 0.054 0.053 0.051 -0.012 0.003 -0.013
C20D 0.048 0.038 0.045 -0.002 -0.006 -0.002
C21D 0.042 0.078 0.064 -0.001 0.004 -0.022
C22D 0.053 0.034 0.055 -0.006 -0.024 0.007
O1D 0.098 0.05 0.087 -0.016 0.024 -0.001
O2D 0.131 0.05 0.099 0.004 -0.002 0.022
O3D 0.056 0.056 0.068 0.009 -0.009 -0.027
O4D 0.06 0.058 0.066 -0.021 -0.005 -0.002
Zn1D 0.0573 0.0389 0.0563 -0.0077 -0.0087 0.0143
C23D 0.065 0.086 0.08 0.014 0.024 0.016
C24D 0.069 0.089 0.082 0.015 0.028 0.016
C25D 0.062 0.083 0.074 0.012 0.03 0.02
N1D 0.063 0.086 0.08 0.016 0.026 0.015
O5D 0.111 0.067 0.103 0.014 0.051 0.021
Zn1B 0.0573 0.0389 0.0563 -0.0077 -0.0087 0.0143
Zn1C 0.0573 0.0389 0.0563 0.0077 -0.0087 -0.0143
Zn1F 0.0573 0.0389 0.0563 -0.0077 -0.0087 0.0143
Zn1G 0.0573 0.0389 0.0563 0.0077 -0.0087 -0.0143
O3C 0.056 0.056 0.068 -0.009 -0.009 0.027
O3G 0.056 0.056 0.068 -0.009 -0.009 0.027
O4B 0.06 0.058 0.066 -0.021 -0.005 -0.002
O4F 0.06 0.058 0.066 -0.021 -0.005 -0.002
C26? 0.067(7) 0.086(8) 0.082(8) 0.014(7) 0.025(7) 0.018(7)
C27? 0.081(10) 0.095(10) 0.086(10) 0.014(9) 0.016(9) 0.014(9)
C28? 0.060(9) 0.082(10) 0.080(10) 0.008(9) 0.025(9) 0.018(8)
N2? 0.065(7) 0.087(8) 0.082(8) 0.013(7) 0.027(7) 0.019(7)
loop_
_geom_bond_atom_site_label_1
_geom_bond_atom_site_label_2
_geom_bond_site_symmetry_1
_geom_bond_site_symmetry_2
Zn1 O1 1_555 1_555
C1 C2 1_555 1_555
C2 C3 1_555 1_555
C3 H1 1_555 1_555
C4 C3 1_555 1_555
H2 C4 1_555 1_555
C5 C4 1_555 1_555
C6 C5 1_555 1_555
H3 C6 1_555 1_555
C7 C2 1_555 1_555
H4 C7 1_555 1_555
C8 C5 1_555 1_555
C9 C8 1_555 1_555
C10 C9 1_555 1_555
C11 C10 1_555 1_555
C12 C11 1_555 1_555
C13 C8 1_555 1_555
H5 C13 1_555 1_555
C14 C11 1_555 1_555
H6 C14 1_555 1_555
C15 C14 1_555 1_555
H7 C15 1_555 1_555
C16 H8 1_555 1_555
C17 C12 1_555 1_555
C18 C17 1_555 1_555
H9 C18 1_555 1_555
C19 C18 1_555 1_555
H10 C19 1_555 1_555
C20 C19 1_555 1_555
C21 C16 1_555 1_555
H11 C21 1_555 1_555
C22 C20 1_555 1_555
C23 H12 1_555 1_555
C24 H13 1_555 1_555
H14 C24 1_555 1_555
H15 C24 1_555 1_555
C25 H16 1_555 1_555
H17 C25 1_555 1_555
H18 C25 1_555 1_555
N1 C23 1_555 1_555
O1 C1 1_555 1_555
O2 Zn1 1_555 1_555
O3 C22 1_555 1_555
O4 C22 1_555 1_555
O5 Zn1 1_555 1_555
C1D C2D 1_555 1_555
C2D C3D 1_555 1_555
C3D H1D 1_555 1_555
C4D C3D 1_555 1_555
H2D C4D 1_555 1_555
C5D C4D 1_555 1_555
C6D C5D 1_555 1_555
H3D C6D 1_555 1_555
C7D C2D 1_555 1_555
H4D C7D 1_555 1_555
C8D C5D 1_555 1_555
C9D C15 1_555 1_555
C10D C10 1_555 1_555
C11D C10D 1_555 1_555
C12D C11D 1_555 1_555
C13D C8D 1_555 1_555
H5D C13D 1_555 1_555
C14D C11D 1_555 1_555
H6D C14D 1_555 1_555
C15D C9 1_555 1_555
H7D C15D 1_555 1_555
C16D H8D 1_555 1_555
C17D C12D 1_555 1_555
C18D C17D 1_555 1_555
H9D C18D 1_555 1_555
C19D C18D 1_555 1_555
H10D C19D 1_555 1_555
C20D C19D 1_555 1_555
C21D C16D 1_555 1_555
H11D C21D 1_555 1_555
C22D C20D 1_555 1_555
O1D C1D 1_555 1_555
O2D C1D 1_555 1_555
O3D C22D 1_555 1_555
O4D C22D 1_555 1_555
Zn1D O1D 1_555 1_555
C23D H12D 1_555 1_555
C24D H13D 1_555 1_555
H14D C24D 1_555 1_555
H15D C24D 1_555 1_555
C25D H16D 1_555 1_555
H17D C25D 1_555 1_555
H18D C25D 1_555 1_555
N1D C23D 1_555 1_555
O5D Zn1D 1_555 1_555
Zn1B O4 1_555 1_555
Zn1C O3 1_555 1_555
Zn1F O4D 1_555 1_555
Zn1G O3D 1_555 1_555
O3C Zn1 1_555 1_555
O3G Zn1D 1_555 1_555
O4B Zn1 1_555 1_555
O4F Zn1D 1_555 1_555
C1 O2 1_555 1_555
C6 C7 1_555 1_555
C12 C13 1_555 1_555
C16 C17 1_555 1_555
C20 C21 1_555 1_555
C23 O5 1_555 1_555
C24 N1 1_555 1_555
C25 N1 1_555 1_555
C6D C7D 1_555 1_555
C8D C9D 1_555 1_555
C9D C10D 1_555 1_555
C12D C13D 1_555 1_555
C14D C15D 1_555 1_555
C16D C17D 1_555 1_555
C20D C21D 1_555 1_555
O2D Zn1D 1_555 1_555
C23D O5D 1_555 1_555
C24D N1D 1_555 1_555
C25D N1D 1_555 1_555

#END
