
#######################################################################
#
#                 Cambridge Crystallographic Data Centre
#                                CCDC 
#
#######################################################################
#
# If this CIF has been generated from an entry in the Cambridge 
# Structural Database, then it will include bibliographic, chemical, 
# crystal, experimental, refinement or atomic coordinate data resulting 
# from the CCDC's data processing and validation procedures.
#
#######################################################################

data_ACATAA
_symmetry_cell_setting           tetragonal
_symmetry_space_group_name_H-M   'P 4/m m m'
_symmetry_Int_Tables_number      123
_space_group_name_Hall           '-P 4 2'
loop_
_symmetry_equiv_pos_site_id
_symmetry_equiv_pos_as_xyz
1 x,y,z
2 -y,x,z
3 y,-x,z
4 y,x,-z
5 -x,-y,z
6 -x,y,-z
7 x,-y,-z
8 -y,-x,-z
9 -x,-y,-z
10 y,-x,-z
11 -y,x,-z
12 -y,-x,z
13 x,y,-z
14 x,-y,z
15 -x,y,z
16 y,x,z
_cell_length_a                   10.8660(2)
_cell_length_b                   10.8660(2)
_cell_length_c                   9.6705(5)
_cell_angle_alpha                90
_cell_angle_beta                 90
_cell_angle_gamma                90
_cell_volume                     1141.8
loop_
_atom_site_label
_atom_site_type_symbol
_atom_site_fract_x
_atom_site_fract_y
_atom_site_fract_z
_atom_site_U_iso_or_equiv
_atom_site_thermal_displace_type
Cu1 Cu 1.00000 0.00000 0.1443(7) 0.0082 Uiso
O1 O 1.00000 0.1696(8) 0.120(1) 0.0146 Uiso
N1 N 1.00000 0.00000 0.369(3) 0.0146 Uiso
C1 C 0.930(2) 0.440(1) 0.109(2) 0.0146 Uiso
C2 C 1.00000 0.371(2) 0.0000 0.0146 Uiso
C3 C 0.89119 -0.06282 0.422(2) 0.0146 Uiso
C4 C 1.00000 0.12565 0.422(2) 0.0146 Uiso
C5 C 1.00000 0.230(2) 0.0000 0.0146 Uiso
F1 F 0.8563(9) 0.378(1) 0.197(1) 0.0146 Uiso
H1 H 0.8388 -0.0768 0.373(2) 0.0253 Uiso
H2 H 0.822 -0.0141 0.373(2) 0.0253 Uiso
H3 H 0.8891 -0.139 0.373(2) 0.0253 Uiso
O1L O 1.00000 0.1696(8) -0.120(1) 0.0146 Uiso
C1M C 0.930(2) 0.560(1) 0.109(2) 0.0146 Uiso
C1D C 1.070(2) 0.560(1) 0.109(2) 0.0146 Uiso
C1N C 1.070(2) 0.440(1) 0.109(2) 0.0146 Uiso
C1L C 0.930(2) 0.440(1) -0.109(2) 0.0146 Uiso
C1F C 0.930(2) 0.560(1) -0.109(2) 0.0146 Uiso
C1E C 1.070(2) 0.440(1) -0.109(2) 0.0146 Uiso
F1L F 0.8563(9) 0.378(1) -0.197(1) 0.0146 Uiso
C1H C 1.070(2) 0.560(1) -0.109(2) 0.0146 Uiso
F1E F 1.1437(9) 0.378(1) -0.197(1) 0.0146 Uiso
F1N F 1.1437(9) 0.378(1) 0.197(1) 0.0146 Uiso
C2D C 1.00000 0.629(2) 0.0000 0.0146 Uiso
F1H F 1.1437(9) 0.622(1) -0.197(1) 0.0146 Uiso
F1M F 0.8563(9) 0.622(1) 0.197(1) 0.0146 Uiso
F1F F 0.8563(9) 0.622(1) -0.197(1) 0.0146 Uiso
C5D C 1.00000 0.770(2) 0.0000 0.0146 Uiso
O1D O 1.00000 0.8304(8) 0.120(1) 0.0146 Uiso
O1H O 1.00000 0.8304(8) -0.120(1) 0.0146 Uiso
F1D F 1.1437(9) 0.622(1) 0.197(1) 0.0146 Uiso
C3C C 0.93718 -0.10881 0.578(2) 0.0146 Uiso
N1C N 1.00000 0.00000 0.631(3) 0.0146 Uiso
C3F C 0.89119 0.06282 0.578(2) 0.0146 Uiso
C3B C 0.93718 0.10881 0.422(2) 0.0146 Uiso
C3A C 1.06282 -0.10881 0.422(2) 0.0146 Uiso
C3E C 1.10881 -0.06282 0.578(2) 0.0146 Uiso
C3J C 1.06282 -0.10881 0.578(2) 0.0146 Uiso
C3N C 1.10881 -0.06282 0.422(2) 0.0146 Uiso
C3O C 0.93718 -0.10881 0.422(2) 0.0146 Uiso
C3M C 0.89119 0.06282 0.422(2) 0.0146 Uiso
C3I C 0.93718 0.10881 0.578(2) 0.0146 Uiso
C3L C 0.89119 -0.06282 0.578(2) 0.0146 Uiso
C3G C 1.06282 0.10881 0.578(2) 0.0146 Uiso
C3H C 1.10881 0.06282 0.578(2) 0.0146 Uiso
C3K C 1.06282 0.10881 0.422(2) 0.0146 Uiso
C3D C 1.10881 0.06282 0.422(2) 0.0146 Uiso
C4K C 0.87435 0.00000 0.422(2) 0.0146 Uiso
C4B C 1.12565 0.00000 0.422(2) 0.0146 Uiso
C4I C 1.12565 0.00000 0.578(2) 0.0146 Uiso
C4E C 1.00000 0.12565 0.578(2) 0.0146 Uiso
H1K H 1.0768 0.1612 0.373(2) 0.0253 Uiso
C4H C 1.00000 -0.12565 0.578(2) 0.0146 Uiso
C4J C 0.87435 0.00000 0.578(2) 0.0146 Uiso
C4M C 1.00000 -0.12565 0.422(2) 0.0146 Uiso
H1G H 1.0768 0.1612 0.627(2) 0.0253 Uiso
H1C H 0.9232 -0.1612 0.627(2) 0.0253 Uiso
H1F H 0.8388 0.0768 0.627(2) 0.0253 Uiso
H1I H 0.9232 0.1612 0.627(2) 0.0253 Uiso
H2F H 0.822 0.0141 0.627(2) 0.0253 Uiso
H1L H 0.8388 -0.0768 0.627(2) 0.0253 Uiso
H2C H 0.9859 -0.178 0.627(2) 0.0253 Uiso
H1A H 1.0768 -0.1612 0.373(2) 0.0253 Uiso
H1E H 1.1612 -0.0768 0.627(2) 0.0253 Uiso
H1J H 1.0768 -0.1612 0.627(2) 0.0253 Uiso
H2E H 1.178 -0.0141 0.627(2) 0.0253 Uiso
H1H H 1.1612 0.0768 0.627(2) 0.0253 Uiso
H2G H 1.0141 0.178 0.627(2) 0.0253 Uiso
H2I H 0.9859 0.178 0.627(2) 0.0253 Uiso
H3G H 1.139 0.1109 0.627(2) 0.0253 Uiso
H2H H 1.178 0.0141 0.627(2) 0.0253 Uiso
H3E H 1.1109 -0.139 0.627(2) 0.0253 Uiso
H2J H 1.0141 -0.178 0.627(2) 0.0253 Uiso
H3C H 0.861 -0.1109 0.627(2) 0.0253 Uiso
H2L H 0.822 -0.0141 0.627(2) 0.0253 Uiso
H3F H 0.8891 0.139 0.627(2) 0.0253 Uiso
H3I H 0.861 0.1109 0.627(2) 0.0253 Uiso
H3J H 1.139 -0.1109 0.627(2) 0.0253 Uiso
H3H H 1.1109 0.139 0.627(2) 0.0253 Uiso
H1M H 0.8388 0.0768 0.373(2) 0.0253 Uiso
H1B H 0.9232 0.1612 0.373(2) 0.0253 Uiso
H2M H 0.822 0.0141 0.373(2) 0.0253 Uiso
H1O H 0.9232 -0.1612 0.373(2) 0.0253 Uiso
H2O H 0.9859 -0.178 0.373(2) 0.0253 Uiso
H1N H 1.1612 -0.0768 0.373(2) 0.0253 Uiso
H2N H 1.178 -0.0141 0.373(2) 0.0253 Uiso
H1D H 1.1612 0.0768 0.373(2) 0.0253 Uiso
H2K H 1.0141 0.178 0.373(2) 0.0253 Uiso
H2B H 0.9859 0.178 0.373(2) 0.0253 Uiso
H3K H 1.139 0.1109 0.373(2) 0.0253 Uiso
H2D H 1.178 0.0141 0.373(2) 0.0253 Uiso
H3N H 1.1109 -0.139 0.373(2) 0.0253 Uiso
H2A H 1.0141 -0.178 0.373(2) 0.0253 Uiso
H3O H 0.861 -0.1109 0.373(2) 0.0253 Uiso
H3M H 0.8891 0.139 0.373(2) 0.0253 Uiso
H3B H 0.861 0.1109 0.373(2) 0.0253 Uiso
H3A H 1.139 -0.1109 0.373(2) 0.0253 Uiso
H3D H 1.1109 0.139 0.373(2) 0.0253 Uiso
H3L H 0.8891 -0.139 0.627(2) 0.0253 Uiso
O1A O 0.8304(8) 0.00000 0.120(1) 0.0146 Uiso
C1A C 0.560(1) -0.070(2) 0.109(2) 0.0146 Uiso
C2A C 0.629(2) 0.00000 0.0000 0.0146 Uiso
C5A C 0.770(2) 0.00000 0.0000 0.0146 Uiso
F1A F 0.622(1) -0.1437(9) 0.197(1) 0.0146 Uiso
O1J O 0.8304(8) 0.00000 -0.120(1) 0.0146 Uiso
C1O C 0.440(1) -0.070(2) 0.109(2) 0.0146 Uiso
C1B C 0.440(1) 0.070(2) 0.109(2) 0.0146 Uiso
C1K C 0.560(1) 0.070(2) 0.109(2) 0.0146 Uiso
C1J C 0.560(1) -0.070(2) -0.109(2) 0.0146 Uiso
C1C C 0.440(1) -0.070(2) -0.109(2) 0.0146 Uiso
C1G C 0.560(1) 0.070(2) -0.109(2) 0.0146 Uiso
F1J F 0.622(1) -0.1437(9) -0.197(1) 0.0146 Uiso
C1I C 0.440(1) 0.070(2) -0.109(2) 0.0146 Uiso
F1G F 0.622(1) 0.1437(9) -0.197(1) 0.0146 Uiso
F1K F 0.622(1) 0.1437(9) 0.197(1) 0.0146 Uiso
C2B C 0.371(2) 0.00000 0.0000 0.0146 Uiso
F1I F 0.378(1) 0.1437(9) -0.197(1) 0.0146 Uiso
F1O F 0.378(1) -0.1437(9) 0.197(1) 0.0146 Uiso
F1C F 0.378(1) -0.1437(9) -0.197(1) 0.0146 Uiso
C5B C 0.230(2) 0.00000 0.0000 0.0146 Uiso
O1B O 0.1696(8) 0.00000 0.120(1) 0.0146 Uiso
O1I O 0.1696(8) 0.00000 -0.120(1) 0.0146 Uiso
F1B F 0.378(1) 0.1437(9) 0.197(1) 0.0146 Uiso
Cu1L Cu 1.00000 0.00000 -0.1443(7) 0.0082 Uiso
O1B_2 O 1.1696(8) 0.00000 0.120(1) 0.0146 Uiso
O1M O 1.00000 -0.1696(8) 0.120(1) 0.0146 Uiso
Cu1_2 Cu 1.00000 1.00000 0.1443(7) 0.0082 Uiso
Cu1C Cu 1.00000 1.00000 -0.1443(7) 0.0082 Uiso
Cu1C_2 Cu 1.00000 0.00000 0.8557(7) 0.0082 Uiso
Cu1_3 Cu 0.00000 0.00000 0.1443(7) 0.0082 Uiso
Cu1C_3 Cu 0.00000 0.00000 -0.1443(7) 0.0082 Uiso
O1C O 1.1696(8) 0.00000 -0.120(1) 0.0146 Uiso
O1H_2 O 1.00000 -0.1696(8) -0.120(1) 0.0146 Uiso
N1C_2 N 1.00000 0.00000 -0.369(3) 0.0146 Uiso
loop_
_geom_bond_atom_site_label_1
_geom_bond_atom_site_label_2
_geom_bond_site_symmetry_1
_geom_bond_site_symmetry_2
Cu1 O1 1_555 1_555
O1 C5 1_555 1_555
N1 Cu1 1_555 1_555
C1 C2 1_555 1_555
C2 C5 1_555 1_555
C3 N1 1_555 1_555
C4 N1 1_555 1_555
C5 O1L 1_555 1_555
F1 C1 1_555 1_555
H1 C3 1_555 1_555
H2 C3 1_555 1_555
H3 C3 1_555 1_555
O1L Cu1L 1_555 1_555
C1M C1 1_555 1_555
C1D C1M 1_555 1_555
C1N C1 1_555 1_555
C1L C2 1_555 1_555
C1F C1L 1_555 1_555
C1E C2 1_555 1_555
F1L C1L 1_555 1_555
C1H C1F 1_555 1_555
F1E C1E 1_555 1_555
F1N C1N 1_555 1_555
C2D C1M 1_555 1_555
F1H C1H 1_555 1_555
F1M C1M 1_555 1_555
F1F C1F 1_555 1_555
C5D C2D 1_555 1_555
O1D C5D 1_555 1_555
O1H C5D 1_555 1_555
F1D C1D 1_555 1_555
C3C C3 1_555 1_555
N1C C3C 1_555 1_555
C3F N1C 1_555 1_555
C3B N1 1_555 1_555
C3A N1 1_555 1_555
C3E N1C 1_555 1_555
C3J C3C 1_555 1_555
C3N N1 1_555 1_555
C3O N1 1_555 1_555
C3M N1 1_555 1_555
C3I C4 1_555 1_555
C3L C3 1_555 1_555
C3G C4 1_555 1_555
C3H N1C 1_555 1_555
C3K N1 1_555 1_555
C3D N1 1_555 1_555
C4K N1 1_555 1_555
C4B N1 1_555 1_555
C4I N1C 1_555 1_555
C4E C4 1_555 1_555
H1K C4 1_555 1_555
C4H C3C 1_555 1_555
C4J C3 1_555 1_555
C4M N1 1_555 1_555
H1G C3G 1_555 1_555
H1C C3C 1_555 1_555
H1F C3F 1_555 1_555
H1I C3F 1_555 1_555
H2F C3F 1_555 1_555
H1L C3C 1_555 1_555
H2C C3C 1_555 1_555
H1A C3A 1_555 1_555
H1E C3E 1_555 1_555
H1J C3E 1_555 1_555
H2E C3E 1_555 1_555
H1H C3G 1_555 1_555
H2G C3I 1_555 1_555
H2I C3I 1_555 1_555
H3G C3G 1_555 1_555
H2H C3E 1_555 1_555
H3E C3E 1_555 1_555
H2J C3C 1_555 1_555
H3C C3C 1_555 1_555
H2L C3F 1_555 1_555
H3F C3F 1_555 1_555
H3I C3F 1_555 1_555
H3J C3E 1_555 1_555
H3H C3G 1_555 1_555
H1M C3B 1_555 1_555
H1B C4 1_555 1_555
H2M C3 1_555 1_555
H1O C3 1_555 1_555
H2O C3A 1_555 1_555
H1N C3A 1_555 1_555
H2N C3N 1_555 1_555
H1D C3K 1_555 1_555
H2K C4 1_555 1_555
H2B C4 1_555 1_555
H3K C3K 1_555 1_555
H2D C3N 1_555 1_555
H3N C3A 1_555 1_555
H2A C3A 1_555 1_555
H3O C3 1_555 1_555
H3M C4 1_555 1_555
H3B C3B 1_555 1_555
H3A C3A 1_555 1_555
H3D C4 1_555 1_555
H3L C3C 1_555 1_555
O1A Cu1 1_555 1_555
C1A C2A 1_555 1_555
C2A C5A 1_555 1_555
C5A O1A 1_555 1_555
F1A C1A 1_555 1_555
O1J C5A 1_555 1_555
C1O C1A 1_555 1_555
C1B C1O 1_555 1_555
C1K C1A 1_555 1_555
C1J C2A 1_555 1_555
C1C C1J 1_555 1_555
C1G C2A 1_555 1_555
F1J C1J 1_555 1_555
C1I C1C 1_555 1_555
F1G C1G 1_555 1_555
F1K C1K 1_555 1_555
C2B C1O 1_555 1_555
F1I C1I 1_555 1_555
F1O C1O 1_555 1_555
F1C C1C 1_555 1_555
C5B C2B 1_555 1_555
O1B C5B 1_555 1_555
O1I C5B 1_555 1_555
F1B C1B 1_555 1_555
Cu1L Cu1 1_555 1_555
O1B_2 Cu1 1_555 1_555
O1M Cu1 1_555 1_555
Cu1_2 O1D 1_555 1_555
Cu1C O1H 1_555 1_555
Cu1C_2 N1C 1_555 1_555
Cu1_3 O1B 1_555 1_555
Cu1C_3 O1I 1_555 1_555
O1C Cu1L 1_555 1_555
O1H_2 Cu1L 1_555 1_555
N1C_2 Cu1L 1_555 1_555
C2 C1N 1_555 1_555
C3 C3O 1_555 1_555
C3 C3M 1_555 1_555
C3 C4K 1_555 1_555
C3 C4M 1_555 1_555
C4 C3B 1_555 1_555
C4 C3M 1_555 1_555
C4 C3K 1_555 1_555
C4 C3D 1_555 1_555
H1 H2 1_555 1_555
H1 C3O 1_555 1_555
H1 C4K 1_555 1_555
H1 H3O 1_555 1_555
H2 C3M 1_555 1_555
H2 C4K 1_555 1_555
H2 H2M 1_555 1_555
H3 C3O 1_555 1_555
H3 C4M 1_555 1_555
H3 H1O 1_555 1_555
H3 H3O 1_555 1_555
C1D C1N 1_555 1_555
C1D C2D 1_555 1_555
C1L C1E 1_555 1_555
C1F C2D 1_555 1_555
C1E C1H 1_555 1_555
C1H C2D 1_555 1_555
C3C C3O 1_555 1_555
C3C C3L 1_555 1_555
C3C C4J 1_555 1_555
C3C C4M 1_555 1_555
N1C C3J 1_555 1_555
N1C C3I 1_555 1_555
N1C C3L 1_555 1_555
N1C C3G 1_555 1_555
N1C C4E 1_555 1_555
N1C C4H 1_555 1_555
N1C C4J 1_555 1_555
C3F C3B 1_555 1_555
C3F C3M 1_555 1_555
C3F C3I 1_555 1_555
C3F C3L 1_555 1_555
C3F C4K 1_555 1_555
C3F C4E 1_555 1_555
C3F C4J 1_555 1_555
C3B C3M 1_555 1_555
C3B C3I 1_555 1_555
C3B C3K 1_555 1_555
C3B C4K 1_555 1_555
C3B C4E 1_555 1_555
C3B H1B 1_555 1_555
C3B H2K 1_555 1_555
C3B H2B 1_555 1_555
C3B H3M 1_555 1_555
C3A C3E 1_555 1_555
C3A C3J 1_555 1_555
C3A C3N 1_555 1_555
C3A C3O 1_555 1_555
C3A C4B 1_555 1_555
C3A C4H 1_555 1_555
C3A C4M 1_555 1_555
C3E C3J 1_555 1_555
C3E C3N 1_555 1_555
C3E C3H 1_555 1_555
C3E C4B 1_555 1_555
C3E C4I 1_555 1_555
C3E C4H 1_555 1_555
C3J C3N 1_555 1_555
C3J C4I 1_555 1_555
C3J C4H 1_555 1_555
C3J C4M 1_555 1_555
C3J H2C 1_555 1_555
C3J H1E 1_555 1_555
C3J H1J 1_555 1_555
C3J H3E 1_555 1_555
C3J H2J 1_555 1_555
C3J H3J 1_555 1_555
C3N C3D 1_555 1_555
C3N C4B 1_555 1_555
C3N C4I 1_555 1_555
C3N C4M 1_555 1_555
C3N H1A 1_555 1_555
C3N H1N 1_555 1_555
C3N H3N 1_555 1_555
C3N H3A 1_555 1_555
C3O C3L 1_555 1_555
C3O C4K 1_555 1_555
C3O C4H 1_555 1_555
C3O C4M 1_555 1_555
C3O H1O 1_555 1_555
C3O H2O 1_555 1_555
C3O H2A 1_555 1_555
C3O H3O 1_555 1_555
C3M C3I 1_555 1_555
C3M C4K 1_555 1_555
C3M C4J 1_555 1_555
C3M H1M 1_555 1_555
C3M H1B 1_555 1_555
C3M H2M 1_555 1_555
C3M H3M 1_555 1_555
C3M H3B 1_555 1_555
C3I C3G 1_555 1_555
C3I C4E 1_555 1_555
C3I C4J 1_555 1_555
C3I H1F 1_555 1_555
C3I H1I 1_555 1_555
C3I H3F 1_555 1_555
C3I H3I 1_555 1_555
C3L C4K 1_555 1_555
C3L C4H 1_555 1_555
C3L C4J 1_555 1_555
C3L H1C 1_555 1_555
C3L H2F 1_555 1_555
C3L H1L 1_555 1_555
C3L H3C 1_555 1_555
C3L H2L 1_555 1_555
C3L H3L 1_555 1_555
C3G C3H 1_555 1_555
C3G C3K 1_555 1_555
C3G C3D 1_555 1_555
C3G C4I 1_555 1_555
C3G C4E 1_555 1_555
C3G H2G 1_555 1_555
C3G H2I 1_555 1_555
C3H C3K 1_555 1_555
C3H C3D 1_555 1_555
C3H C4B 1_555 1_555
C3H C4I 1_555 1_555
C3H C4E 1_555 1_555
C3H H1G 1_555 1_555
C3H H2E 1_555 1_555
C3H H1H 1_555 1_555
C3H H3G 1_555 1_555
C3H H2H 1_555 1_555
C3H H3H 1_555 1_555
C3K C3D 1_555 1_555
C3K C4B 1_555 1_555
C3K C4E 1_555 1_555
C3K H1K 1_555 1_555
C3K H2K 1_555 1_555
C3K H2B 1_555 1_555
C3K H3D 1_555 1_555
C3D C4B 1_555 1_555
C3D C4I 1_555 1_555
C3D H1K 1_555 1_555
C3D H2N 1_555 1_555
C3D H1D 1_555 1_555
C3D H3K 1_555 1_555
C3D H2D 1_555 1_555
C3D H3D 1_555 1_555
C4K C4J 1_555 1_555
C4K H1M 1_555 1_555
C4K H2M 1_555 1_555
C4K H3O 1_555 1_555
C4K H3B 1_555 1_555
C4B C4I 1_555 1_555
C4B H1N 1_555 1_555
C4B H2N 1_555 1_555
C4B H1D 1_555 1_555
C4B H3K 1_555 1_555
C4B H2D 1_555 1_555
C4B H3A 1_555 1_555
C4I H1E 1_555 1_555
C4I H2E 1_555 1_555
C4I H1H 1_555 1_555
C4I H3G 1_555 1_555
C4I H2H 1_555 1_555
C4I H3J 1_555 1_555
C4E H1G 1_555 1_555
C4E H1I 1_555 1_555
C4E H2G 1_555 1_555
C4E H2I 1_555 1_555
C4E H3F 1_555 1_555
C4E H3H 1_555 1_555
H1K H2K 1_555 1_555
H1K H3D 1_555 1_555
C4H C4M 1_555 1_555
C4H H1C 1_555 1_555
C4H H2C 1_555 1_555
C4H H1J 1_555 1_555
C4H H3E 1_555 1_555
C4H H2J 1_555 1_555
C4H H3L 1_555 1_555
C4J H1F 1_555 1_555
C4J H2F 1_555 1_555
C4J H1L 1_555 1_555
C4J H3C 1_555 1_555
C4J H2L 1_555 1_555
C4J H3I 1_555 1_555
C4M H1A 1_555 1_555
C4M H1O 1_555 1_555
C4M H2O 1_555 1_555
C4M H3N 1_555 1_555
C4M H2A 1_555 1_555
H1G H2G 1_555 1_555
H1G H3H 1_555 1_555
H1C H2C 1_555 1_555
H1C H3L 1_555 1_555
H1F H2F 1_555 1_555
H1F H3I 1_555 1_555
H1I H2I 1_555 1_555
H1I H3F 1_555 1_555
H2F H2L 1_555 1_555
H1L H3C 1_555 1_555
H1L H2L 1_555 1_555
H2C H2J 1_555 1_555
H1A H3N 1_555 1_555
H1A H2A 1_555 1_555
H1E H2E 1_555 1_555
H1E H3J 1_555 1_555
H1J H3E 1_555 1_555
H1J H2J 1_555 1_555
H2E H2H 1_555 1_555
H1H H3G 1_555 1_555
H1H H2H 1_555 1_555
H2G H2I 1_555 1_555
H3G H3H 1_555 1_555
H3E H3J 1_555 1_555
H3C H3L 1_555 1_555
H3F H3I 1_555 1_555
H1M H2M 1_555 1_555
H1M H3B 1_555 1_555
H1B H2B 1_555 1_555
H1B H3M 1_555 1_555
H1O H2O 1_555 1_555
H2O H2A 1_555 1_555
H1N H2N 1_555 1_555
H1N H3A 1_555 1_555
H2N H2D 1_555 1_555
H1D H3K 1_555 1_555
H1D H2D 1_555 1_555
H2K H2B 1_555 1_555
H3K H3D 1_555 1_555
H3N H3A 1_555 1_555
H3M H3B 1_555 1_555
C2A C1K 1_555 1_555
O1J Cu1L 1_555 1_555
C1B C1K 1_555 1_555
C1B C2B 1_555 1_555
C1J C1G 1_555 1_555
C1C C2B 1_555 1_555
C1G C1I 1_555 1_555
C1I C2B 1_555 1_555
Cu1_2 Cu1C 1_555 1_555
Cu1_3 Cu1C_3 1_555 1_555

#END
